<?xml version="1.0" encoding="UTF-8"?>

<!-- generated on Thu Mar 19 08:07:37 2020 by SUMO duarouter Version 0.32.0
<?xml version="1.0" encoding="UTF-8"?>

<configuration xmlns:xsi="http://www.w3.org/2001/XMLSchema-instance" xsi:noNamespaceSchemaLocation="http://sumo.dlr.de/xsd/duarouterConfiguration.xsd">

    <input>
        <net-file value="real.net.xml"/>
        <route-files value="trips.trips.xml"/>
    </input>

    <output>
        <output-file value="real.rou.xml"/>
        <alternatives-output value="real.rou.alt.xml"/>
    </output>

    <processing>
        <ignore-errors value="true"/>
    </processing>

    <time>
        <begin value="0.0"/>
        <end value="110.0"/>
    </time>

    <report>
        <no-warnings value="true"/>
        <no-step-log value="true"/>
    </report>

</configuration>
-->

<routes xmlns:xsi="http://www.w3.org/2001/XMLSchema-instance" xsi:noNamespaceSchemaLocation="http://sumo.dlr.de/xsd/routes_file.xsd">
    <vehicle id="0" depart="0.00">
        <route edges="328093151#1 328093151#2 328093151#3 610895251 610895255 212405153 223053390 610897305 610897309#0 610897309#1 359185424#1 518493229#0 518493229#1 -260743648#0"/>
    </vehicle>
    <vehicle id="1" depart="1.00">
        <route edges="575312687#0 -575312687#0 223053394#0 223053394#1 223053394#2 223053394#3 610897299 610897295 212401610 610895252 610894796 610894792 610894791#0 610894791#1 263593101#4 610893062#1 354073845#3"/>
    </vehicle>
    <vehicle id="2" depart="2.00">
        <route edges="223053394#1 223053394#2 223053394#3 610897299 610897295 212401610 610895252 610894796 610894792 610894791#0 610894791#1 263593101#4 263593101#5 148849082#6 -103643440#2 -103643440#1 103643440#1"/>
    </vehicle>
    <vehicle id="3" depart="3.00">
        <route edges="-219414229#1 -575312693#3 -575312693#2 241890930 677977532#0 677977532#1 677977532#2"/>
    </vehicle>
    <vehicle id="4" depart="4.00">
        <route edges="359185423#1 575343616#1 575316227#1 575312681 219414215#0 219414215#1 219414215#2 625475654#12 610897313 610897311 610897310#0 610897310#1 359185424#0 359185424#1 518493229#0 518493229#1 219414229#0 -575312693#3"/>
    </vehicle>
    <vehicle id="5" depart="5.00">
        <route edges="103643440#0 219414232#0 219414232#1 219414232#2 219414232#3 219414232#4 219414232#5 219414232#6 219414232#7 271452257#0 271452257#1 575312696#1 575312696#2"/>
    </vehicle>
    <vehicle id="6" depart="6.00">
        <route edges="263593101#7 -263593101#7 -263593101#6 -263593101#5 610893062#1 610893062#2 610893062#3 610894789 610894795#0 610894795#1 610895255 610895254 610895253#0 610895253#1 610895253#2 610895253#3 -575312687#1 -575312687#0 575312690#0"/>
    </vehicle>
    <vehicle id="7" depart="7.00">
        <route edges="610897310#0 610897310#1 359185424#0 359185424#1 518493229#0 518493229#1 219414229#0 -575312693#3 -575312693#2 -575312693#1 -598360238#0 -610897306#1 -610897306#0 -610897308 -598360239 -610897311 -610897313 -223053399 223053397#0 223053397#1 223053397#2 223053397#3 270385602#0"/>
    </vehicle>
    <vehicle id="8" depart="8.00">
        <route edges="-271452257#4 -677977532#1 -677977532#0 -241890930 575312693#2 575312693#3 -575312693#3"/>
    </vehicle>
    <vehicle id="10" depart="10.00">
        <route edges="-271452257#3 -271452257#2 -271452257#1 -271452257#0 61652360#3 61652360#4 61652360#5 61652360#6 610895254 610895253#0 610895253#1 610895253#2 610895253#3 610895253#4 -219485337 219485331#0 219485331#1 -219485331#1"/>
    </vehicle>
    <vehicle id="13" depart="13.00">
        <route edges="354073841#0 148849082#2 148849082#3 148849082#4 148849082#5 263593101#6 263593101#7 219414232#1 219414232#2"/>
    </vehicle>
    <vehicle id="14" depart="14.00">
        <route edges="148849082#1 354073841#1 610894795#0 610894795#1 610895255 610895254 610895253#0 610895253#1 -113582439#2 -113582439#1 -113582439#0 -223053394#1 223053394#1"/>
    </vehicle>
    <vehicle id="15" depart="15.00">
        <route edges="610897309#0 610897309#1 359185424#1 518493229#0 518493229#1 219414229#0 -575312693#3 -575312693#2 -575312693#1 -598360238#0 -610897306#1 -610897306#0 -610897308 -598360239 -610897311 -610897313 -223053399 223053397#0 223053397#1 223053397#2 223053397#3 270385602#0 223053391#4 223053391#5 575312674#0 328091232#3"/>
    </vehicle>
    <vehicle id="16" depart="16.00">
        <route edges="-575315196 575315195 575316227#0 575316227#1 575312681 219414215#0 219414215#1 219414215#2 625475654#12 610897313 610897312 -610897292 610897295 212401610 610895251 610895256#0 610895256#1 610895256#2 219414232#7 61652360#3"/>
    </vehicle>
    <vehicle id="17" depart="17.00">
        <route edges="328093151#2 328093151#3 610895251 610895255 212405153 610897280 -610897311 -610897313 -223053399 223053397#0 223053397#1 223053397#2 223053397#3 270385602#0 270385602#1 575343612 575315195 575316227#0 575316227#1 575312681 219414215#0 219414215#1 219414215#2 219414215#3 289080998#2"/>
    </vehicle>
    <vehicle id="18" depart="18.00">
        <route edges="354073841#1 610894795#0 610894795#1 610895255 212405153 223053390 610897305 610897309#0 610897309#1 610897309#2 610897309#3"/>
    </vehicle>
    <vehicle id="19" depart="19.00">
        <route edges="-575312693#3 -575312693#2 241890930 677977532#0 677977532#1 677977532#2 677977532#3 -575312696#2"/>
    </vehicle>
    <vehicle id="20" depart="20.00">
        <route edges="625475654#12 610897313 610897312 -610897292 610897295 212401610 610895252 610894796 610894792 610894791#0 610894791#1 263593101#4 263593101#5 263593101#6 263593101#7"/>
    </vehicle>
    <vehicle id="21" depart="21.00">
        <route edges="219414237 -610897302#1 -610897302#0 -610897304 -223053390 -610897285 -610897292 610897295 610895253#0 610895253#1 113582439#3 271740716#0 271740716#1 223059866#3"/>
    </vehicle>
    <vehicle id="22" depart="22.00">
        <route edges="625475654#6 625475654#7 625475654#8 625475654#9 625475654#10 625475654#11 625475654#12 610897313 610897312 610897285 223053390 610897304 610897302#0 610897302#1 575312696#0 575312696#1 575312696#2 -223059859#1"/>
    </vehicle>
    <vehicle id="23" depart="23.00">
        <route edges="762607332 -677977533#0 -677977532#3 -677977532#2 -677977532#1 -677977532#0 -241890930 575312693#2 575312693#3 -575312693#3"/>
    </vehicle>
    <vehicle id="24" depart="24.00">
        <route edges="-575312693#4 -575312693#3 -575312693#2 -575312693#1 -575312693#0 -219414237 61652360#4 61652360#5 61652360#6"/>
    </vehicle>
    <vehicle id="25" depart="25.00">
        <route edges="-575343613#0 575343613#0 575343613#1 223053391#5 575312674#0 -328091232#2 -328091232#1 -328091232#0 -219485337 219485331#0 219485331#1 219485331#2 -219485331#2"/>
    </vehicle>
    <vehicle id="26" depart="26.00">
        <route edges="148849082#6 103643440#3 103643440#4 610893062#0 610893062#1 610893062#2 610893062#3 610894789 610894795#0 610894795#1 610895255 212405153 223053390 610897305 610897309#0 610897309#1 359185424#1 518493229#0 518493229#1 219414214#0"/>
    </vehicle>
    <vehicle id="29" depart="29.00">
        <route edges="610894788#2 219414232#5 219414232#6 219414232#7 271452257#0 271452257#1 575312696#1 -293657006"/>
    </vehicle>
    <vehicle id="30" depart="30.00">
        <route edges="219414232#5 219414232#6 219414232#7 61652360#3 61652360#4 61652360#5 61652360#6 212405153 223053390 610897305 610897309#0 610897309#1 359185424#1 518493229#0 518493229#1 219414229#0 -575312693#3"/>
    </vehicle>
    <vehicle id="31" depart="31.00">
        <route edges="444828075 -328091232#0 -219485337 328093151#0 328093151#1 328093151#2 328093151#3 610895251 610895255 212405153 223053390 610897305 610897309#0 610897309#1 610897309#2 219414214#4 271086447#0 271086447#1 271086447#2"/>
    </vehicle>
    <vehicle id="32" depart="32.00">
        <route edges="-677977533#4 -677977533#3 -677977533#2 -677977533#1 -677977533#0 -223059859#1 -223059859#0"/>
    </vehicle>
    <vehicle id="33" depart="33.00">
        <route edges="336863678#4 328093151#0 328093151#1 328093151#2 328093151#3 610895251 610895255 212405153 223053390 610897305 610897309#0 610897309#1 610897309#2 610897309#3 610897309#4 610897309#5 610897309#6 610897309#7 610897309#8 610897309#9 610897309#10"/>
    </vehicle>
    <vehicle id="35" depart="35.00">
        <route edges="677977532#1 -271452257#3 -271452257#2 -271452257#1 -271452257#0 61652360#3 61652360#4 61652360#5 61652360#6 610895254 610895253#0 610895253#1 113582439#3 271740716#0 271740716#1 271740716#2 271740716#3 762607327#1 762607327#2 292836026#3"/>
    </vehicle>
    <vehicle id="36" depart="36.00">
        <route edges="239433855 575343613#0 575343613#1 223053391#5 223053396 223053394#0 223053394#1 223053394#2 223053394#3 610897299 610897292 610897285 610897280 -610897311 -610897313 610897314"/>
    </vehicle>
    <vehicle id="37" depart="37.00">
        <route edges="223059866#0 292836026#5 292836026#6 328093151#1 -113582439#3 610895253#2 610895253#3"/>
    </vehicle>
    <vehicle id="38" depart="38.00">
        <route edges="239433856 575315196 -575315196"/>
    </vehicle>
    <vehicle id="40" depart="40.00">
        <route edges="575312668#1 575312668#2 223053394#0 223053394#1 223053394#2 223053394#3 610897299 610897292 610897285 223053390 610897304 610897302#0 610897302#1 575312696#0 271452257#2 271452257#3 677977532#2"/>
    </vehicle>
    <vehicle id="41" depart="41.00">
        <route edges="-271452257#2 575312696#1 575312696#2 677977533#0 677977533#1 677977533#2 677977533#3 677977533#4 677977533#5"/>
    </vehicle>
    <vehicle id="42" depart="42.00">
        <route edges="575343614 575343612 575315195 575316227#0 575316227#1 575312681 219414215#0 219414215#1 219414215#2 625475654#12 610897313 610897311 610897310#0 610897310#1 359185424#0 610897309#2 219414214#4 271086447#0 271086447#1 271086447#2 271086447#3 271086447#4 271086447#5"/>
    </vehicle>
    <vehicle id="43" depart="43.00">
        <route edges="271452257#3 -677977532#1 -677977532#0 -241890930 575312693#2 219414227#1 -260743648#1 219414214#0 219414214#1 219414214#2 219414214#3 219414214#4 271086447#0"/>
    </vehicle>
    <vehicle id="44" depart="44.00">
        <route edges="625475654#0 625475654#1 625475654#2 625475654#3 625475654#4 625475654#5 625475654#6 625475654#7 625475654#8"/>
    </vehicle>
    <vehicle id="45" depart="45.00">
        <route edges="336863678#4 328093151#0 328093151#1 328093151#2 328093151#3 610895251 610895255 212405153 223053390 610897305 610897309#0 610897309#1 610897309#2 610897309#3 610897309#4 610897309#5 610897309#6 610897309#7 610897309#8"/>
    </vehicle>
    <vehicle id="46" depart="46.00">
        <route edges="-677977533#1 -677977533#0 677977533#0"/>
    </vehicle>
    <vehicle id="47" depart="47.00">
        <route edges="223059866#3 610894791#0 610894791#1 263593101#4 263593101#5 263593101#6 263593101#7 219414232#1 219414232#2"/>
    </vehicle>
    <vehicle id="48" depart="48.00">
        <route edges="260743648#1 -260743648#1 219414229#0 -575312693#3 -575312693#2 -575312693#1 -598360238#0 -610897306#1 -610897306#0 -610897308 -598360239 -610897311 -610897313 -223053399 223053397#0 598360240"/>
    </vehicle>
    <vehicle id="49" depart="49.00">
        <route edges="260743648#0 219414229#0 -575312693#3 -575312693#2 -575312693#1 -598360238#0 -610897306#1 -610897306#0 -610897308 -598360239 -610897311 -610897313 -223053399 223053397#0 223053397#1 223053397#2 223053397#3 270385602#0 223053391#4 -575343613#1"/>
    </vehicle>
    <vehicle id="50" depart="50.00">
        <route edges="-263593101#0 -219485331#2 219485331#2"/>
    </vehicle>
    <vehicle id="51" depart="51.00">
        <route edges="518493229#1 219414229#0 -575312693#3 -575312693#2 -575312693#1 -575312693#0 575312696#0"/>
    </vehicle>
    <vehicle id="52" depart="52.00">
        <route edges="610897310#0 610897310#1 359185424#0 359185424#1 518493229#0 518493229#1 219414229#0 -219414229#0"/>
    </vehicle>
    <vehicle id="54" depart="54.00">
        <route edges="336863678#4 328093151#0 328093151#1 328093151#2 328093151#3 610895251 610895255 212405153 223053390 610897305 610897309#0 610897309#1 359185424#1 518493229#0 518493229#1 219414229#0 -219414229#0"/>
    </vehicle>
    <vehicle id="55" depart="55.00">
        <route edges="219414229#0 -575312693#3 -575312693#2 -575312693#1 -598360238#0 -610897306#1 -610897306#0 -610897308 -598360239 -610897311 -610897313 -223053399 223053397#0 223053397#1 223053397#2 223053397#3 270385602#0 270385602#1 575343612 575315195"/>
    </vehicle>
    <vehicle id="56" depart="56.00">
        <route edges="-271452257#4 -271452257#3 -271452257#2 -575312696#0 -610897302#1 -610897302#0 -610897304 -223053390 -610897285 -610897292 -610897299 -223053394#3 223053394#3"/>
    </vehicle>
    <vehicle id="57" depart="57.00">
        <route edges="270385602#1 575343612 575315195 575316227#0 575316227#1 575312681 219414215#0 219414215#1 219414215#2 625475654#12 610897313 610897312 -610897292 610897295 212401610 610895252 610894796 610894792 610894791#0 610894791#1 263593101#4 610893062#1 610893062#2 610893062#3 610894789"/>
    </vehicle>
    <vehicle id="58" depart="58.00">
        <route edges="625475654#9 625475654#10 625475654#11 625475654#12 610897313 610897311 610897310#0 610897310#1 359185424#0 359185424#1 518493229#0 518493229#1 -260743648#0"/>
    </vehicle>
    <vehicle id="59" depart="59.00">
        <route edges="-219485331#2 -219485331#1 -219485331#0 328093151#0 328093151#1 328093151#2 328093151#3 610895251 610895255 212405153 223053390 610897305 610897309#0 610897309#1 610897309#2 610897309#3 610897309#4 610897309#5 610897309#6 610897309#7 610897309#8 610897309#9 610897309#10"/>
    </vehicle>
    <vehicle id="60" depart="60.00">
        <route edges="610894793#2 292836026#6 328093151#1 328093151#2 328093151#3 610895251 610895255 212405153 223053390 610897305 610897309#0 610897309#1 359185424#1 518493229#0 518493229#1 -260743648#0"/>
    </vehicle>
    <vehicle id="62" depart="62.00">
        <route edges="223059866#3 610894790 610894788#0 610894788#1 610894788#2 219414232#5 219414232#6 219414232#7 271452257#0 271452257#1 271452257#2 271452257#3 -271452257#3"/>
    </vehicle>
    <vehicle id="65" depart="65.00">
        <route edges="-575312693#4 -575312693#3 -575312693#2 241890930 677977532#0 677977532#1 271452257#4"/>
    </vehicle>
    <vehicle id="67" depart="67.00">
        <route edges="271452257#1 -575312696#0 -610897302#1 -610897302#0 -610897304 -223053390 -610897285 -610897292 -610897299 -223053394#3 -223053394#2 113582439#0 -113582439#0"/>
    </vehicle>
    <vehicle id="69" depart="69.00">
        <route edges="336863678#2 336863678#3 336863678#4 219485331#0 219485331#1 223059866#0 292836026#5 292836026#6"/>
    </vehicle>
    <vehicle id="70" depart="70.00">
        <route edges="762607332 -677977533#0 -677977532#3 -677977532#2 -677977532#1 -677977532#0 -241890930 575312693#2 219414227#1 -260743648#1 219414214#0 219414214#1 219414214#2 219414214#3 610897309#3 610897309#4 610897309#5 610897309#6 610897309#7"/>
    </vehicle>
    <vehicle id="71" depart="71.00">
        <route edges="-288939016#2 -610897306#0 -610897308 -598360239 -610897311 610897312"/>
    </vehicle>
    <vehicle id="72" depart="72.00">
        <route edges="625475654#4 625475654#5 625475654#6 625475654#7 625475654#8 625475654#9 625475654#10 625475654#11 625475654#12 610897313 610897312 -610897292 610897295 212401610 610895252 610894796 610894792 610894791#0 610894791#1 -263593101#3 -263593101#2 263593101#2"/>
    </vehicle>
    <vehicle id="73" depart="73.00">
        <route edges="610897310#0 610897310#1 359185424#0 359185424#1 518493229#0 518493229#1 219414229#0 -575312693#3 -575312693#2 241890930 677977532#0 677977532#1 677977532#2 677977532#3 -223059859#1 -223059859#0"/>
    </vehicle>
    <vehicle id="75" depart="75.00">
        <route edges="359185423#1 575343616#1 598360988 223053391#1 223053391#2 223053391#3 223053391#4 223053391#5 575312674#0 -328091232#2 328091232#2"/>
    </vehicle>
    <vehicle id="76" depart="76.00">
        <route edges="271086447#5"/>
    </vehicle>
    <vehicle id="78" depart="78.00">
        <route edges="103643440#0 103643440#1 103643440#2 103643440#3 103643440#4 610893062#0 610893062#1 610893062#2 610893062#3 610894789 610894795#0 223059861 610895256#1"/>
    </vehicle>
    <vehicle id="79" depart="79.00">
        <route edges="219485331#2 -219485331#2 -219485331#1 -219485331#0 328093151#0 328093151#1 328093151#2 328093151#3 610895251 610895256#0 610895256#1 610895256#2 610895256#3 610895256#4 -677977533#2 61652360#1 61652360#2"/>
    </vehicle>
    <vehicle id="80" depart="80.00">
        <route edges="610893062#2 610893062#3 610894789 610894795#0 610894795#1 610895255 610895254 212401610 610895252 610894796 610894792 610894791#0 610894791#1 -263593101#3 263593101#3"/>
    </vehicle>
    <vehicle id="82" depart="82.00">
        <route edges="354073845#2 610893062#2 610893062#3 610894789 610894795#0 610894795#1 610895255 212405153 223053390 610897305 610897309#0 610897309#1 359185424#1 518493229#0 518493229#1 260743648#1 -260743648#1"/>
    </vehicle>
    <vehicle id="83" depart="83.00">
        <route edges="223053391#3 223053391#4 223053391#5 223053396 223053394#0 223053394#1 223053394#2 223053394#3 610897299 610897292 610897285 223053390 610897305 610897309#0 610897309#1 359185424#1 518493229#0 518493229#1 -260743648#0"/>
    </vehicle>
    <vehicle id="85" depart="85.00">
        <route edges="328091232#1 575312668#2"/>
    </vehicle>
    <vehicle id="86" depart="86.00">
        <route edges="-677977533#0 -677977532#3 -677977532#2 -677977532#1 -677977532#0 -241890930 575312693#2 219414227#1 -260743648#1 219414214#0 219414214#1 219414214#2 219414214#3 219414214#4 271086447#0 271086447#1 271086447#2 271086447#3"/>
    </vehicle>
    <vehicle id="87" depart="87.00">
        <route edges="575312693#1 575312693#2 575312693#3 -575312693#3"/>
    </vehicle>
    <vehicle id="88" depart="88.00">
        <route edges="762607335 223053394#1 223053394#2 223053394#3 610897299 610897292 610897288"/>
    </vehicle>
    <vehicle id="89" depart="89.00">
        <route edges="625475654#8 625475654#9 625475654#10 625475654#11 625475654#12 610897313 610897311 610897310#0 610897310#1 359185424#0 359185424#1 518493229#0 518493229#1 219414229#0"/>
    </vehicle>
    <vehicle id="90" depart="90.00">
        <route edges="359185423#1 575343616#1 598360988 223053391#1 270385600 575316227#0"/>
    </vehicle>
    <vehicle id="91" depart="91.00">
        <route edges="223059866#2 271740716#2 271740716#3 271740716#4 762607348"/>
    </vehicle>
    <vehicle id="92" depart="92.00">
        <route edges="-219414237 61652360#4 61652360#5 61652360#6 212405153 610897280 -610897311 -610897313 -223053399 223053397#0 223053397#1 223053397#2 223053397#3"/>
    </vehicle>
    <vehicle id="93" depart="93.00">
        <route edges="219414237 575312696#0 575312696#1 575312696#2 -223059859#1 223059859#1"/>
    </vehicle>
    <vehicle id="95" depart="95.00">
        <route edges="610897302#0 -610897302#0 -610897304 610897305 610897309#0 610897309#1 610897309#2 610897309#3 610897309#4 610897309#5 610897309#6 610897309#7"/>
    </vehicle>
    <vehicle id="98" depart="98.00">
        <route edges="762607334#0 -263593101#6 -263593101#5 610893062#1 610893062#2 610893062#3 610894789 610894795#0 610894795#1 610895255 610895254 610895253#0 610895253#1 610895253#2 610895253#3 610895253#4 328091233#0"/>
    </vehicle>
    <vehicle id="100" depart="100.00">
        <route edges="-288939016#0 61652360#5 61652360#6 212405153 223053390 610897305 610897309#0 610897309#1 359185424#1 518493229#0 518493229#1 219414229#0"/>
    </vehicle>
    <vehicle id="101" depart="101.00">
        <route edges="328091232#4 -328091232#4 -328091232#3 -328091232#2 575312668#2 223053394#0 223053394#1 223053394#2 223053394#3 610897299 610897292 610897285 223053390 610897305 610897309#0 610897309#1 359185424#1 518493229#0 518493229#1 219414229#0 219414229#1"/>
    </vehicle>
    <vehicle id="102" depart="102.00">
        <route edges="610894788#4 610894788#5 -677977533#4 -677977533#3 -677977533#2 61652360#1 61652360#2 61652360#3 61652360#4 61652360#5 61652360#6 212405153 223053390 610897305 610897309#0"/>
    </vehicle>
    <vehicle id="103" depart="103.00">
        <route edges="292836026#4 292836026#5 292836026#6 328093151#1 328093151#2 328093151#3 610895251 610895256#0 610895256#1 610895256#2 219414232#7 271452257#0 271452257#1 271452257#2 271452257#3 271452257#4"/>
    </vehicle>
    <vehicle id="104" depart="104.00">
        <route edges="-271452257#4 -271452257#3 -598360237#1 -598360237#0 -598360238#1 -598360238#0 -610897306#1 -610897306#0 -610897308 -598360239 -610897311 -610897313 -223053399 223053397#0 223053397#1 223053397#2 223053397#3 270385602#0 270385602#1 575343612 -239433856"/>
    </vehicle>
    <vehicle id="105" depart="105.00">
        <route edges="292836026#2 292836026#3 292836026#4 292836026#5 292836026#6 328093151#1 328093151#2 328093151#3 610895251 610895255 212405153 223053390 610897305 610897309#0 610897309#1 359185424#1 518493229#0 518493229#1 -260743648#0"/>
    </vehicle>
    <vehicle id="106" depart="106.00">
        <route edges="-103643440#3 103643440#3 103643440#4 610893062#0 610893062#1 610893062#2 610893062#3 610894788#0 610894788#1 610894788#2"/>
    </vehicle>
    <vehicle id="107" depart="107.00">
        <route edges="610894793#3 -219485331#0 328093151#0 328093151#1 328093151#2 328093151#3 610895251 610895256#0 610895256#1 610895256#2 610895256#3 610895256#4 -677977533#2 -677977533#1 677977533#1"/>
    </vehicle>
    <vehicle id="108" depart="108.00">
        <route edges="610893062#3 610894789 610894795#0 223059861 610895256#1 148849082#1 354073841#1"/>
    </vehicle>
    <vehicle id="109" depart="109.00">
        <route edges="223059859#0 223059859#1 -677977532#3 -677977532#2 -677977532#1 -677977532#0 -241890930 575312693#2 219414227#1 -260743648#1 219414214#0 219414216 212405155#2"/>
    </vehicle>
</routes>
