<?xml version="1.0" encoding="UTF-8"?>

<!-- generated on Tue Mar 10 23:53:12 2020 by SUMO polyconvert Version 0.32.0
<?xml version="1.0" encoding="UTF-8"?>

<configuration xmlns:xsi="http://www.w3.org/2001/XMLSchema-instance" xsi:noNamespaceSchemaLocation="http://sumo.dlr.de/xsd/polyconvertConfiguration.xsd">

    <input>
        <net-file value="real.net.xml"/>
        <osm-files value="map.osm"/>
        <type-file value="osmPolyconvert.typ.xml"/>
    </input>

    <output>
        <output-file value="real.poly.xml"/>
    </output>

    <processing>
        <poi-layer-offset value="5"/>
    </processing>

</configuration>
-->

<additional xmlns:xsi="http://www.w3.org/2001/XMLSchema-instance" xsi:noNamespaceSchemaLocation="http://sumo.dlr.de/xsd/additional_file.xsd">
    <location netOffset="-261193.65,-2671813.97" convBoundary="0.00,-0.00,2961.44,2430.69" origBoundary="120.556503,24.135822,120.686204,24.241527" projParameter="+proj=utm +zone=51 +ellps=WGS84 +datum=WGS84 +units=m +no_defs"/>

    <poly id="103643440" type="unknown" color="51,128,255" fill="0" layer="-1.00" shape="2892.86,612.03 2864.10,583.36 2822.58,541.97 2782.03,501.54 2747.42,467.04 2712.70,432.42"/>
    <poly id="113582439" type="unknown" color="51,128,255" fill="0" layer="-1.00" shape="2245.80,717.41 2279.50,686.03 2321.77,646.68 2329.12,639.26"/>
    <poly id="120262762" type="amenity" color="237,199,199" fill="1" layer="-1.00" shape="2256.42,99.76 2281.60,125.82 2287.27,131.68 2307.71,152.83 2333.39,179.38 2358.58,205.45 2396.85,245.03 2184.62,449.27 2161.27,447.99 2138.86,428.69 2044.99,317.75 2170.57,188.28 2184.87,173.52 2206.32,151.41 2225.21,131.94 2230.28,126.70 2256.42,99.76"/>
    <poly id="148849082" type="unknown" color="51,128,255" fill="0" layer="-1.00" shape="2475.23,801.93 2482.63,793.00 2534.43,744.28 2583.05,697.03 2611.66,669.41 2635.73,649.07 2726.16,554.74 2782.03,501.54 2833.46,450.89 2885.11,398.50 2957.38,334.62 2961.44,329.77"/>
    <poly id="212401610" type="unknown" color="51,128,255" fill="0" layer="-1.00" shape="2395.02,720.85 2403.27,713.51"/>
    <poly id="212405153" type="unknown" color="51,128,255" fill="0" layer="-1.00" shape="2405.37,730.44 2389.35,747.15 2330.66,803.39"/>
    <poly id="212405155" type="unknown" color="51,128,255" fill="0" layer="-1.00" shape="2058.44,1085.31 2055.28,1088.56 2023.68,1121.33 2017.05,1127.82 1998.24,1146.26 1977.24,1166.71 1924.82,1217.82 1844.63,1280.41 1772.36,1339.27 1767.12,1343.59 1752.09,1354.06"/>
    <poly id="219414213" type="unknown" color="51,128,255" fill="0" layer="-1.00" shape="2031.85,617.98 2034.34,693.67"/>
    <poly id="219414214" type="unknown" color="51,128,255" fill="0" layer="-1.00" shape="2102.79,1125.10 2092.67,1115.95 2087.33,1111.99 2062.49,1093.88 2055.28,1088.56 2047.27,1086.50 2040.33,1086.30"/>
    <poly id="219414215" type="unknown" color="51,128,255" fill="0" layer="-1.00" shape="2039.67,1037.85 2040.21,1047.30 2041.98,1051.63 2046.74,1053.97 2050.85,1054.63 2055.25,1055.39 2059.49,1055.87"/>
    <poly id="219414216" type="unknown" color="51,128,255" fill="0" layer="-1.00" shape="2087.33,1111.99 2073.21,1110.77 2061.54,1110.37 2042.40,1112.33 2023.68,1121.33"/>
    <poly id="219414224" type="unknown" color="51,128,255" fill="0" layer="-1.00" shape="2169.03,976.51 2211.85,1019.83 2286.81,1096.20 2343.26,1159.84 2375.80,1199.02 2380.64,1207.58 2390.44,1229.23"/>
    <poly id="219414227" type="unknown" color="51,128,255" fill="0" layer="-1.00" shape="2364.23,1229.69 2356.52,1202.74 2311.14,1160.26 2271.10,1120.33 2189.85,1040.21 2146.72,997.87"/>
    <poly id="219414229" type="unknown" color="51,128,255" fill="0" layer="-1.00" shape="2102.79,1125.10 2104.02,1162.98 2105.11,1234.25 2106.32,1291.05 2106.36,1299.30 2106.66,1349.19 2106.80,1372.42 2108.88,1412.21 2113.37,1623.05 2114.47,1674.92 2115.32,1714.96 2115.36,1716.78 2116.09,1750.80 2116.90,1789.45 2117.06,1797.33 2117.43,1814.17 2117.54,1819.72 2118.69,1873.84 2119.21,1898.32 2119.79,1925.45"/>
    <poly id="219414232" type="unknown" color="51,128,255" fill="0" layer="-1.00" shape="2864.10,583.36 2844.52,594.34 2804.77,633.47 2773.96,665.22 2716.14,720.74 2708.80,727.80 2700.09,736.81 2660.94,775.67 2610.43,823.00 2560.29,870.91 2552.42,880.93"/>
    <poly id="219414237" type="unknown" color="51,128,255" fill="0" layer="-1.00" shape="2475.23,801.93 2418.61,893.98"/>
    <poly id="219485331" type="unknown" color="51,128,255" fill="0" layer="-1.00" shape="2172.46,482.86 2221.25,434.83 2272.94,383.97 2418.97,240.24 2429.68,226.61 2474.77,185.31 2545.89,115.31 2600.76,61.31"/>
    <poly id="219485337" type="unknown" color="51,128,255" fill="0" layer="-1.00" shape="2172.46,482.86 2166.13,489.26"/>
    <poly id="223053390" type="unknown" color="51,128,255" fill="0" layer="-1.00" shape="2330.66,803.39 2333.84,806.67"/>
    <poly id="223053391" type="unknown" color="51,128,255" fill="0" layer="-1.00" shape="2149.41,955.06 2148.95,939.12 2147.20,878.11 2146.35,815.24 2145.01,753.41 2143.67,691.57 2142.84,654.30"/>
    <poly id="223053394" type="unknown" color="51,128,255" fill="0" layer="-1.00" shape="2172.27,642.89 2212.37,683.53 2245.80,717.41 2279.06,751.10 2318.39,790.96"/>
    <poly id="223053396" type="unknown" color="51,128,255" fill="0" layer="-1.00" shape="2142.84,654.30 2172.27,642.89"/>
    <poly id="223053397" type="unknown" color="51,128,255" fill="0" layer="-1.00" shape="2235.05,871.29 2217.62,846.90 2224.64,841.52 2225.77,802.37 2220.14,792.47 2193.09,769.24 2173.67,752.81"/>
    <poly id="223053399" type="unknown" color="51,128,255" fill="0" layer="-1.00" shape="2235.05,871.29 2238.18,874.26"/>
    <poly id="223059855" type="unknown" color="51,128,255" fill="0" layer="-1.00" shape="2438.17,764.01 2422.12,760.94 2413.38,760.43 2404.43,760.90 2395.37,762.49 2377.87,767.84"/>
    <poly id="223059858" type="unknown" color="51,128,255" fill="0" layer="-1.00" shape="2367.34,744.58 2372.13,735.64 2374.12,728.46 2374.18,718.97 2372.48,709.36 2365.09,690.56"/>
    <poly id="223059859" type="unknown" color="51,128,255" fill="0" layer="-1.00" shape="2612.26,1615.53 2610.32,1524.89 2608.04,1418.96 2605.03,1278.67 2603.89,1225.46 2602.41,1156.42 2600.93,1087.23"/>
    <poly id="223059861" type="unknown" color="51,128,255" fill="0" layer="-1.00" shape="2442.23,693.00 2440.93,709.57 2440.21,717.75 2439.58,725.22 2439.30,735.00 2439.80,739.81 2440.68,744.37 2445.68,755.94"/>
    <poly id="223059863" type="unknown" color="51,128,255" fill="0" layer="-1.00" shape="2373.21,684.26 2389.86,692.53 2398.64,694.75 2406.27,694.50 2413.79,693.18 2421.42,691.90 2432.26,686.24"/>
    <poly id="223059866" type="unknown" color="51,128,255" fill="0" layer="-1.00" shape="2272.94,383.97 2358.04,466.37 2390.17,500.38 2429.14,541.64 2503.46,616.69"/>
    <poly id="239433855" type="unknown" color="51,128,255" fill="0" layer="-1.00" shape="1800.71,696.56 1862.89,695.79 1941.76,694.53 2024.74,693.78 2034.34,693.67"/>
    <poly id="239433856" type="unknown" color="51,128,255" fill="0" layer="-1.00" shape="1864.78,818.37 1943.91,816.87 2027.34,815.32 2037.81,815.15"/>
    <poly id="239433863" type="unknown" color="51,128,255" fill="0" layer="-1.00" shape="1867.53,1019.15 1947.45,1017.82 2012.44,1017.06 2032.66,1016.39"/>
    <poly id="241890930" type="unknown" color="51,128,255" fill="0" layer="-1.00" shape="2286.81,1096.20 2307.25,1090.25"/>
    <poly id="260271493" type="tourism" color="207,245,201" fill="1" layer="-2.00" shape="2606.10,1103.00 2712.68,1207.63 2712.50,1217.95 2608.77,1220.38 2606.10,1103.00"/>
    <poly id="260743648" type="unknown" color="51,128,255" fill="0" layer="-1.00" shape="1585.96,1594.26 1660.34,1545.91 1667.13,1541.50 1699.67,1520.34 1745.03,1474.97 1767.63,1452.37 1808.55,1411.56 1818.89,1401.64 1850.21,1371.61 1894.15,1329.46 1967.16,1261.17 2019.29,1208.51 2054.97,1172.47 2102.79,1125.10 2109.61,1118.29 2189.85,1040.21"/>
    <poly id="263593101" type="unknown" color="51,128,255" fill="0" layer="-1.00" shape="2418.97,240.24 2500.06,327.35 2538.76,366.62 2571.77,400.11 2647.49,475.94 2657.15,485.62 2726.16,554.74 2768.41,597.05 2804.77,633.47"/>
    <poly id="270385600" type="unknown" color="51,128,255" fill="0" layer="-1.00" shape="2147.20,878.11 2038.24,879.48"/>
    <poly id="270385602" type="unknown" color="51,128,255" fill="0" layer="-1.00" shape="2173.67,752.81 2145.01,753.41 2036.08,754.88"/>
    <poly id="271086447" type="unknown" color="51,128,255" fill="0" layer="-1.00" shape="2040.33,1086.30 2013.59,1113.11 1917.05,1210.10 1837.19,1271.70 1757.67,1332.96 1741.39,1344.66 1611.96,1428.78 1474.32,1511.82 1437.59,1535.25 1309.89,1616.45 1215.56,1675.90 1039.01,1786.76 1024.18,1796.07 1014.23,1802.38 1005.85,1807.70 886.82,1883.13 830.40,1917.58"/>
    <poly id="271452257" type="unknown" color="51,128,255" fill="0" layer="-1.00" shape="2552.42,880.93 2529.70,904.05 2513.57,919.20 2477.67,956.66 2468.52,965.13 2438.46,994.16 2427.10,1004.81 2421.17,1013.93 2422.91,1088.01 2426.68,1159.02 2430.44,1228.22 2434.19,1322.06 2434.32,1421.41"/>
    <poly id="271740716" type="unknown" color="51,128,255" fill="0" layer="-1.00" shape="2329.12,639.26 2377.71,591.77 2429.14,541.64 2462.44,506.66 2495.81,474.20 2537.19,433.95 2571.77,400.11 2628.00,344.48 2680.39,292.76 2702.19,268.72 2756.47,216.44 2764.28,208.74"/>
    <poly id="288939016" type="unknown" color="51,128,255" fill="0" layer="-1.00" shape="2455.67,781.93 2380.24,854.47 2301.39,931.59 2211.85,1019.83"/>
    <poly id="289080998" type="unknown" color="51,128,255" fill="0" layer="-1.00" shape="2030.61,1086.59 2039.13,1077.50 2059.49,1055.87 2242.15,878.02"/>
    <poly id="292836026" type="unknown" color="51,128,255" fill="0" layer="-1.00" shape="2696.94,122.74 2623.29,195.89 2550.83,264.32 2500.06,327.35 2430.14,396.02 2392.27,433.22 2358.04,466.37 2301.39,512.58 2252.33,562.37 2244.62,568.56"/>
    <poly id="293657006" type="unknown" color="51,128,255" fill="0" layer="-1.00" shape="2493.57,1088.34 2493.26,1038.13 2493.72,1036.47 2494.35,1033.82 2523.86,1005.34"/>
    <poly id="301626172" type="tourism" color="207,245,201" fill="1" layer="-2.00" shape="2179.87,761.65 2220.58,796.22 2224.02,805.93 2220.16,839.08 2187.89,864.03 2180.04,869.64 2179.87,761.65"/>
    <poly id="314151563" type="unknown" color="51,128,255" fill="0" layer="-1.00" shape="2848.83,298.12 2814.75,328.56 2763.93,380.49 2712.70,432.42"/>
    <poly id="321781182" type="unknown" color="51,128,255" fill="0" layer="-1.00" shape="2405.37,730.44 2395.79,751.61 2377.87,767.84 2345.23,800.85 2336.64,809.54"/>
    <poly id="321781183" type="unknown" color="51,128,255" fill="0" layer="-1.00" shape="2039.91,1061.57 2050.85,1054.63 2057.26,1048.16 2149.41,955.06 2169.52,935.28 2183.43,921.26 2230.92,875.22 2235.05,871.29"/>
    <poly id="322401707" type="unknown" color="51,128,255" fill="0" layer="-1.00" shape="2230.92,875.22 2253.26,897.93"/>
    <poly id="322401711" type="building" color="255,230,230" fill="1" layer="-1.00" shape="2431.04,683.81 2411.44,678.15 2417.56,671.11 2431.04,683.81"/>
    <poly id="322401712" type="building" color="255,230,230" fill="1" layer="-1.00" shape="2410.02,678.38 2417.02,670.55 2399.06,655.04 2377.02,677.74 2380.14,679.34 2385.02,680.44 2391.30,679.57 2396.66,678.66 2401.40,678.08 2405.84,678.10 2410.02,678.38"/>
    <poly id="322401712#1" type="tourism" color="207,245,201" fill="1" layer="-2.00" shape="2410.02,678.38 2417.02,670.55 2399.06,655.04 2377.02,677.74 2380.14,679.34 2385.02,680.44 2391.30,679.57 2396.66,678.66 2401.40,678.08 2405.84,678.10 2410.02,678.38"/>
    <poly id="322401713" type="building" color="255,230,230" fill="1" layer="-1.00" shape="2469.36,766.30 2461.28,758.19 2459.14,754.35 2458.45,750.25 2459.30,744.88 2462.30,734.81 2479.40,733.41 2481.54,733.24 2492.98,723.70 2503.98,734.28 2469.36,766.30"/>
    <poly id="322401714" type="building" color="255,230,230" fill="1" layer="-1.00" shape="2462.30,734.81 2462.07,726.16 2461.21,721.96 2458.26,714.22 2457.86,708.62 2458.69,702.22 2477.65,711.71 2479.40,733.41 2462.30,734.81"/>
    <poly id="322401715" type="unknown" color="51,128,255" fill="0" layer="-1.00" shape="2246.59,860.17 2268.55,882.55"/>
    <poly id="322401716" type="unknown" color="51,128,255" fill="0" layer="-1.00" shape="2253.26,897.93 2268.55,882.55"/>
    <poly id="322401717" type="building" color="255,230,230" fill="1" layer="-1.00" shape="2414.04,814.60 2423.73,805.13 2420.99,802.35 2425.69,797.79 2428.27,800.40 2431.70,797.06 2429.15,794.47 2440.83,783.21 2432.19,774.59 2423.16,777.39 2415.36,778.92 2405.44,778.91 2396.14,777.44 2386.48,786.96 2404.05,804.36 2400.98,807.34 2407.63,814.08 2410.64,811.15 2414.04,814.60"/>
    <poly id="322401718" type="amenity" color="237,199,199" fill="1" layer="-1.00" shape="2429.60,681.19 2419.28,671.07 2430.93,659.32 2436.69,664.97 2436.73,673.99 2429.60,681.19"/>
    <poly id="322401718#1" type="building" color="255,230,230" fill="1" layer="-1.00" shape="2429.60,681.19 2419.28,671.07 2430.93,659.32 2436.69,664.97 2436.73,673.99 2429.60,681.19"/>
    <poly id="322401719" type="building" color="255,230,230" fill="1" layer="-1.00" shape="2387.86,837.83 2404.30,821.17 2387.66,804.92 2385.55,807.06 2375.99,797.74 2361.89,812.02 2364.51,814.57 2360.92,818.20 2381.98,838.76 2385.32,835.37 2387.86,837.83"/>
    <poly id="322401720" type="unknown" color="51,128,255" fill="0" layer="-1.00" shape="2313.56,795.65 2332.14,813.97"/>
    <poly id="322401721" type="unknown" color="51,128,255" fill="0" layer="-1.00" shape="2326.67,783.11 2345.23,800.85"/>
    <poly id="322401724" type="unknown" color="51,128,255" fill="0" layer="-1.00" shape="2356.41,739.17 2359.69,726.69 2356.83,714.71"/>
    <poly id="322401725" type="unknown" color="51,128,255" fill="0" layer="-1.00" shape="2448.49,742.80 2442.77,730.82 2447.95,718.27"/>
    <poly id="322401726" type="unknown" color="51,128,255" fill="0" layer="-1.00" shape="2392.29,771.89 2403.43,769.87 2414.53,771.99"/>
    <poly id="322401727" type="unknown" color="51,128,255" fill="0" layer="-1.00" shape="2389.30,685.62 2401.86,686.53 2415.51,687.51"/>
    <poly id="322401728" type="unknown" color="51,128,255" fill="0" layer="-1.00" shape="2359.69,726.69 2364.07,726.92"/>
    <poly id="322401729" type="unknown" color="51,128,255" fill="0" layer="-1.00" shape="2401.86,686.53 2401.66,693.47"/>
    <poly id="322401731" type="unknown" color="51,128,255" fill="0" layer="-1.00" shape="2403.43,769.87 2403.54,762.22"/>
    <poly id="322401732" type="unknown" color="51,128,255" fill="1" layer="-1.00" shape="2379.76,729.40 2379.99,726.39 2380.14,724.33 2398.51,706.62 2401.56,706.68 2404.53,706.72 2424.51,727.58 2424.50,730.98 2424.49,734.55 2406.67,751.42 2403.37,751.42 2400.37,751.41 2379.76,729.40"/>
    <poly id="322401733" type="unknown" color="51,128,255" fill="0" layer="-1.00" shape="2364.07,726.92 2379.99,726.39"/>
    <poly id="322401734" type="unknown" color="51,128,255" fill="0" layer="-1.00" shape="2401.66,693.47 2401.56,706.68"/>
    <poly id="322401735" type="unknown" color="51,128,255" fill="0" layer="-1.00" shape="2442.77,730.82 2424.50,730.98"/>
    <poly id="322401736" type="unknown" color="51,128,255" fill="0" layer="-1.00" shape="2403.54,762.22 2403.37,751.42"/>
    <poly id="322401737" type="unknown" color="51,128,255" fill="0" layer="-1.00" shape="2044.56,1037.79 2045.55,1048.10 2052.17,1046.26"/>
    <poly id="322401740" type="unknown" color="51,128,255" fill="0" layer="-1.00" shape="2030.08,1051.64 2041.98,1051.63 2044.37,1051.62"/>
    <poly id="322401741" type="unknown" color="51,128,255" fill="0" layer="-1.00" shape="2045.55,1048.10 2044.37,1051.62"/>
    <poly id="322401742" type="unknown" color="51,128,255" fill="0" layer="-1.00" shape="2075.29,1091.14 2072.70,1080.74 2077.12,1070.53"/>
    <poly id="322401743" type="unknown" color="51,128,255" fill="0" layer="-1.00" shape="2044.37,1051.62 2072.70,1080.74"/>
    <poly id="328091232" type="unknown" color="51,128,255" fill="0" layer="-1.00" shape="2166.13,489.26 2127.07,526.70 2091.73,560.57 2070.57,580.85 2042.56,607.71 2034.67,615.27 2031.85,617.98 2023.30,626.17"/>
    <poly id="328091233" type="unknown" color="51,128,255" fill="0" layer="-1.00" shape="2166.13,489.26 2096.83,418.60 2062.12,383.30 2009.45,329.73 1938.78,257.86 1855.42,173.09 1778.20,94.57 1712.62,27.89 1702.51,17.61"/>
    <poly id="328093151" type="unknown" color="51,128,255" fill="0" layer="-1.00" shape="2172.46,482.86 2252.33,562.37 2329.12,639.26 2373.21,684.26 2403.27,713.51"/>
    <poly id="330354486" type="unknown" color="51,128,255" fill="0" layer="-1.00" shape="2620.04,950.12 2629.60,940.44 2668.30,901.37 2675.88,893.72"/>
    <poly id="330354487" type="unknown" color="51,128,255" fill="0" layer="-1.00" shape="2675.88,893.72 2726.95,842.33"/>
    <poly id="330354488" type="unknown" color="51,128,255" fill="0" layer="-1.00" shape="2668.30,901.37 2616.64,851.95"/>
    <poly id="335710522" type="amenity" color="237,199,199" fill="1" layer="-1.00" shape="2354.55,450.11 2362.84,449.78 2481.94,330.46 2416.56,264.07 2293.90,390.72 2354.55,450.11"/>
    <poly id="335711108" type="amenity" color="237,199,199" fill="1" layer="-1.00" shape="2224.60,597.43 2238.38,583.90 2263.34,609.24 2250.35,621.14 2224.60,597.43"/>
    <poly id="335711108#1" type="building" color="255,230,230" fill="1" layer="-1.00" shape="2224.60,597.43 2238.38,583.90 2263.34,609.24 2250.35,621.14 2224.60,597.43"/>
    <poly id="336863678" type="unknown" color="51,128,255" fill="0" layer="-1.00" shape="1703.43,-0.00 1712.16,8.97 1722.37,19.47 1786.87,85.82 1863.79,164.91 1900.19,202.35 1939.09,242.35 1977.45,281.80 2016.93,322.41 2172.46,482.86"/>
    <poly id="338441882" type="building" color="255,230,230" fill="1" layer="-1.00" shape="2147.54,425.16 2164.99,442.50 2187.00,444.77 2238.15,393.19 2223.07,375.62 2198.97,374.56 2147.54,425.16"/>
    <poly id="341739962" type="unknown" color="51,128,255" fill="0" layer="-1.00" shape="2225.77,802.37 2279.06,751.10"/>
    <poly id="350390028" type="parking" color="184,184,179" fill="1" layer="-1.00" shape="2063.72,1005.80 2093.59,974.32 2105.81,989.71 2114.38,978.28 2086.54,965.54 2086.28,949.70 2050.20,951.62 2049.35,1004.72 2063.72,1005.80"/>
    <poly id="354073841" type="unknown" color="51,128,255" fill="0" layer="-1.00" shape="2610.43,823.00 2534.43,744.28 2458.15,676.40"/>
    <poly id="354073845" type="unknown" color="51,128,255" fill="0" layer="-1.00" shape="2708.80,727.80 2671.32,688.28 2635.73,649.07 2566.40,573.85 2556.40,564.96"/>
    <poly id="359185423" type="unknown" color="51,128,255" fill="0" layer="-1.00" shape="2033.32,1039.01 2032.66,1016.39 2030.48,941.40 2028.70,879.91"/>
    <poly id="359185424" type="unknown" color="51,128,255" fill="0" layer="-1.00" shape="2047.62,1078.33 2052.54,1081.50 2058.44,1085.31"/>
    <poly id="389536781" type="amenity" color="237,199,199" fill="1" layer="-1.00" shape="2382.88,471.90 2394.81,485.19 2405.26,475.92 2393.33,462.63 2382.88,471.90"/>
    <poly id="389536781#1" type="building" color="255,230,230" fill="1" layer="-1.00" shape="2382.88,471.90 2394.81,485.19 2405.26,475.92 2393.33,462.63 2382.88,471.90"/>
    <poly id="389536782" type="amenity" color="237,199,199" fill="1" layer="-1.00" shape="2734.93,658.46 2725.44,648.79 2736.24,638.31 2745.73,647.97 2734.93,658.46"/>
    <poly id="389536782#1" type="building" color="255,230,230" fill="1" layer="-1.00" shape="2734.93,658.46 2725.44,648.79 2736.24,638.31 2745.73,647.97 2734.93,658.46"/>
    <poly id="389536784" type="unknown" color="51,128,255" fill="0" layer="-1.00" shape="2742.67,636.01 2773.96,665.22"/>
    <poly id="389536786" type="amenity" color="237,199,199" fill="1" layer="-1.00" shape="2743.92,930.06 2750.79,923.67 2757.27,930.57 2750.40,936.95 2743.92,930.06"/>
    <poly id="389536786#1" type="building" color="255,230,230" fill="1" layer="-1.00" shape="2743.92,930.06 2750.79,923.67 2757.27,930.57 2750.40,936.95 2743.92,930.06"/>
    <poly id="435297076" type="unknown" color="51,128,255" fill="0" layer="-1.00" shape="2611.66,669.41 2543.22,596.75"/>
    <poly id="435297077" type="unknown" color="51,128,255" fill="0" layer="-1.00" shape="2671.32,688.28 2658.49,700.02 2622.62,737.00"/>
    <poly id="435297079" type="unknown" color="51,128,255" fill="0" layer="-1.00" shape="2392.27,433.22 2425.36,467.84 2462.44,506.66"/>
    <poly id="443188790" type="unknown" color="51,128,255" fill="0" layer="-1.00" shape="2747.42,467.04 2800.07,417.62 2855.99,368.05"/>
    <poly id="444828075" type="unknown" color="51,128,255" fill="0" layer="-1.00" shape="2206.70,607.33 2127.07,526.70"/>
    <poly id="444828079" type="unknown" color="51,128,255" fill="0" layer="-1.00" shape="2027.85,537.48 2022.76,549.40 2015.25,558.85"/>
    <poly id="444828796" type="unknown" color="51,128,255" fill="0" layer="-1.00" shape="2716.14,720.74 2761.99,769.75 2773.24,781.78"/>
    <poly id="518493216" type="unknown" color="51,128,255" fill="0" layer="-1.00" shape="2405.37,730.44 2392.76,749.04 2333.84,806.67"/>
    <poly id="518493224" type="unknown" color="51,128,255" fill="0" layer="-1.00" shape="2040.33,1086.30 2030.61,1086.59 2011.39,1087.14"/>
    <poly id="518493225" type="unknown" color="51,128,255" fill="0" layer="-1.00" shape="2039.13,1077.50 2047.62,1078.33"/>
    <poly id="518493226" type="unknown" color="51,128,255" fill="0" layer="-1.00" shape="2019.60,1078.81 2027.96,1054.55 2032.87,1040.29 2033.32,1039.01"/>
    <poly id="518493227" type="unknown" color="51,128,255" fill="0" layer="-1.00" shape="2019.60,1078.81 2039.91,1061.57"/>
    <poly id="518493228" type="unknown" color="51,128,255" fill="0" layer="-1.00" shape="2019.60,1078.81 2039.13,1077.50"/>
    <poly id="518493229" type="unknown" color="51,128,255" fill="0" layer="-1.00" shape="2058.44,1085.31 2075.03,1096.72 2086.52,1104.62 2097.61,1113.38 2102.79,1125.10"/>
    <poly id="523335708" type="building" color="255,230,230" fill="1" layer="-1.00" shape="2099.43,451.63 2138.52,489.76 2138.93,497.35 2122.81,512.81 2110.35,501.36 2113.57,498.31 2094.76,482.62 2093.51,456.34 2099.43,451.63"/>
    <poly id="541537546" type="landuse" color="194,194,130" fill="1" layer="-3.00" shape="2092.24,598.54 2104.24,587.00 2154.24,638.46 2142.24,649.98 2092.24,598.54"/>
    <poly id="541537598" type="landuse" color="194,194,130" fill="1" layer="-3.00" shape="2150.66,737.78 2166.21,737.33 2164.02,662.84 2148.47,663.30 2150.66,737.78"/>
    <poly id="541537691" type="landuse" color="194,194,130" fill="1" layer="-3.00" shape="2169.22,767.14 2154.03,767.38 2156.47,924.63 2171.65,924.39 2169.22,767.14"/>
    <poly id="541538433" type="unknown" color="51,128,255" fill="0" layer="-1.00" shape="2224.64,841.52 2263.49,844.34"/>
    <poly id="541538819" type="landuse" color="194,194,130" fill="1" layer="-3.00" shape="2239.21,865.33 2268.74,836.45 2237.06,801.91 2230.63,807.80 2229.00,843.71 2222.54,848.16 2239.21,865.33"/>
    <poly id="548998410" type="unknown" color="51,128,255" fill="0" layer="-1.00" shape="2044.56,1037.79 2039.67,1037.85"/>
    <poly id="562677703" type="amenity" color="237,199,199" fill="1" layer="-1.00" shape="2110.48,573.57 2110.06,564.90 2117.80,557.96 2131.44,572.96 2119.60,583.60 2110.48,573.57"/>
    <poly id="562677703#1" type="building" color="255,230,230" fill="1" layer="-1.00" shape="2110.48,573.57 2110.06,564.90 2117.80,557.96 2131.44,572.96 2119.60,583.60 2110.48,573.57"/>
    <poly id="562677710" type="amenity" color="237,199,199" fill="1" layer="-1.00" shape="2494.37,653.08 2506.97,641.64 2517.72,640.92 2534.19,658.82 2522.55,669.39 2510.35,656.13 2503.18,662.64 2494.37,653.08"/>
    <poly id="562677710#1" type="building" color="255,230,230" fill="1" layer="-1.00" shape="2494.37,653.08 2506.97,641.64 2517.72,640.92 2534.19,658.82 2522.55,669.39 2510.35,656.13 2503.18,662.64 2494.37,653.08"/>
    <poly id="575312668" type="unknown" color="51,128,255" fill="0" layer="-1.00" shape="1936.36,401.83 2067.32,535.65 2091.73,560.57 2172.27,642.89"/>
    <poly id="575312674" type="unknown" color="51,128,255" fill="0" layer="-1.00" shape="2142.84,654.30 2070.57,580.85 2027.85,537.48 1940.74,448.99 1913.92,421.73 1905.69,413.38"/>
    <poly id="575312678" type="unknown" color="51,128,255" fill="0" layer="-1.00" shape="2039.67,1037.85 2039.91,1061.57 2040.11,1068.62 2039.13,1077.50"/>
    <poly id="575312681" type="unknown" color="51,128,255" fill="0" layer="-1.00" shape="2039.54,1035.05 2039.67,1037.85"/>
    <poly id="575312684" type="unknown" color="51,128,255" fill="0" layer="-1.00" shape="2175.69,912.31 2183.43,921.26"/>
    <poly id="575312687" type="unknown" color="51,128,255" fill="0" layer="-1.00" shape="2172.27,642.89 2206.70,607.33 2244.62,568.56"/>
    <poly id="575312690" type="unknown" color="51,128,255" fill="0" layer="-1.00" shape="2172.27,642.89 2173.67,752.81 2175.27,879.16 2175.69,912.31"/>
    <poly id="575312693" type="unknown" color="51,128,255" fill="0" layer="-1.00" shape="2418.61,893.98 2357.95,987.05 2286.81,1096.20 2271.10,1120.33 2244.33,1161.14 2196.77,1232.64 2191.99,1240.38 2176.73,1265.10 2171.32,1273.43 2161.52,1288.45 2143.07,1316.76 2135.25,1328.77 2106.80,1372.42 2080.59,1412.64 2074.59,1421.86 2040.41,1474.30 1972.47,1578.55"/>
    <poly id="575312696" type="unknown" color="51,128,255" fill="0" layer="-1.00" shape="2418.61,893.98 2477.67,956.66 2523.86,1005.34 2592.54,1068.69 2600.93,1087.23 2719.94,1196.58 2745.36,1222.98"/>
    <poly id="575315195" type="unknown" color="51,128,255" fill="0" layer="-1.00" shape="2037.81,815.15 2038.24,879.48"/>
    <poly id="575315196" type="unknown" color="51,128,255" fill="0" layer="-1.00" shape="2037.81,815.15 2146.35,815.24"/>
    <poly id="575316225" type="unknown" color="51,128,255" fill="0" layer="-1.00" shape="2038.24,879.48 2028.70,879.91 1945.05,881.30 1865.41,882.64"/>
    <poly id="575316227" type="unknown" color="51,128,255" fill="0" layer="-1.00" shape="2038.24,879.48 2038.76,941.27 2039.54,1035.05"/>
    <poly id="575343611" type="unknown" color="51,128,255" fill="0" layer="-1.00" shape="2036.08,754.88 2026.04,755.00 1942.84,756.08 1864.21,757.10"/>
    <poly id="575343612" type="unknown" color="51,128,255" fill="0" layer="-1.00" shape="2036.08,754.88 2037.81,815.15"/>
    <poly id="575343613" type="unknown" color="51,128,255" fill="0" layer="-1.00" shape="2034.34,693.67 2084.63,692.71 2143.67,691.57"/>
    <poly id="575343614" type="unknown" color="51,128,255" fill="0" layer="-1.00" shape="2034.34,693.67 2036.08,754.88"/>
    <poly id="575343616" type="unknown" color="51,128,255" fill="0" layer="-1.00" shape="1866.35,943.86 1946.13,942.66 2030.48,941.40 2038.76,941.27"/>
    <poly id="581374364" type="unknown" color="51,128,255" fill="0" layer="-1.00" shape="2357.33,1089.74 2355.04,1050.61 2355.94,1039.20 2369.84,1022.16 2379.37,1012.56"/>
    <poly id="586055816" type="water" color="181,209,209" fill="0" layer="-4.00" shape="2716.95,2019.91 2700.36,1929.23 2631.50,1752.78 2539.10,1440.80 2524.88,1428.65 2396.47,1429.57 2384.28,1418.11 2377.04,1211.67 2173.21,991.06 2164.23,931.57 2157.58,652.56 1937.82,421.61 1916.01,384.60 1915.14,284.41 1914.81,264.93 1891.16,244.11"/>
    <poly id="598350101" type="unknown" color="51,128,255" fill="0" layer="-1.00" shape="2042.56,607.71 2034.48,597.25 2026.64,584.90 2018.21,569.31 2015.25,558.85"/>
    <poly id="598352142" type="unknown" color="51,128,255" fill="0" layer="-1.00" shape="2034.67,615.27 2039.08,616.60 2082.96,625.86"/>
    <poly id="598352143" type="unknown" color="51,128,255" fill="0" layer="-1.00" shape="2082.96,625.86 2084.63,692.71"/>
    <poly id="598360237" type="unknown" color="51,128,255" fill="0" layer="-1.00" shape="2376.84,1005.74 2379.37,1012.56 2383.51,1013.74 2421.17,1013.93"/>
    <poly id="598360238" type="unknown" color="51,128,255" fill="0" layer="-1.00" shape="2341.88,972.52 2357.95,987.05 2376.84,1005.74"/>
    <poly id="598360239" type="unknown" color="51,128,255" fill="0" layer="-1.00" shape="2251.57,881.24 2251.23,886.73"/>
    <poly id="598360240" type="unknown" color="51,128,255" fill="0" layer="-1.00" shape="2217.62,846.90 2214.14,849.55 2175.27,879.16"/>
    <poly id="598360988" type="unknown" color="51,128,255" fill="0" layer="-1.00" shape="2038.76,941.27 2148.95,939.12"/>
    <poly id="598361069" type="unknown" color="51,128,255" fill="0" layer="-1.00" shape="2148.95,939.12 2169.52,935.28"/>
    <poly id="610893061" type="unknown" color="51,128,255" fill="0" layer="-1.00" shape="2712.70,432.42 2703.67,423.06"/>
    <poly id="610893062" type="unknown" color="51,128,255" fill="0" layer="-1.00" shape="2712.70,432.42 2657.15,485.62 2612.73,529.50 2566.40,573.85 2543.22,596.75 2512.66,625.98"/>
    <poly id="610894788" type="unknown" color="51,128,255" fill="0" layer="-1.00" shape="2512.66,625.98 2583.05,697.03 2622.62,737.00 2660.94,775.67 2707.24,822.43 2726.95,842.33 2787.88,903.87 2845.66,958.22"/>
    <poly id="610894789" type="unknown" color="51,128,255" fill="0" layer="-1.00" shape="2512.66,625.98 2458.15,676.40"/>
    <poly id="610894790" type="unknown" color="51,128,255" fill="0" layer="-1.00" shape="2503.46,616.69 2512.66,625.98"/>
    <poly id="610894791" type="unknown" color="51,128,255" fill="0" layer="-1.00" shape="2503.46,616.69 2556.40,564.96 2647.49,475.94 2703.67,423.06"/>
    <poly id="610894792" type="unknown" color="51,128,255" fill="0" layer="-1.00" shape="2450.58,668.34 2503.46,616.69"/>
    <poly id="610894793" type="unknown" color="51,128,255" fill="0" layer="-1.00" shape="2450.58,668.34 2377.71,591.77 2337.82,550.38 2301.39,512.58 2221.25,434.83"/>
    <poly id="610894794" type="unknown" color="51,128,255" fill="0" layer="-1.00" shape="2458.15,676.40 2450.58,668.34"/>
    <poly id="610894795" type="unknown" color="51,128,255" fill="0" layer="-1.00" shape="2458.15,676.40 2442.23,693.00 2413.16,723.31"/>
    <poly id="610894796" type="unknown" color="51,128,255" fill="0" layer="-1.00" shape="2432.26,686.24 2450.58,668.34"/>