<?xml version="1.0" encoding="UTF-8"?>

<!-- generated on Tue Mar 10 23:51:02 2020 by SUMO netconvert Version 0.32.0
<?xml version="1.0" encoding="UTF-8"?>

<configuration xmlns:xsi="http://www.w3.org/2001/XMLSchema-instance" xsi:noNamespaceSchemaLocation="http://sumo.dlr.de/xsd/netconvertConfiguration.xsd">

    <input>
        <osm-files value="map.osm"/>
    </input>

    <output>
        <output-file value="real.net.xml"/>
    </output>

    <projection>
        <proj.utm value="true"/>
    </projection>

</configuration>
-->

<net version="0.27" xmlns:xsi="http://www.w3.org/2001/XMLSchema-instance" xsi:noNamespaceSchemaLocation="http://sumo.dlr.de/xsd/net_file.xsd">

    <location netOffset="-261193.65,-2671813.97" convBoundary="0.00,0.00,2961.43,2430.69" origBoundary="120.556503,24.135822,120.686204,24.241527" projParameter="+proj=utm +zone=51 +ellps=WGS84 +datum=WGS84 +units=m +no_defs"/>

    <type id="highway.living_street" priority="3" numLanes="1" speed="6.70"/>
    <type id="highway.motorway" priority="13" numLanes="3" speed="29.10"/>
    <type id="highway.motorway_link" priority="12" numLanes="1" speed="24.60"/>
    <type id="highway.primary" priority="9" numLanes="2" speed="20.10"/>
    <type id="highway.primary_link" priority="8" numLanes="1" speed="20.10"/>
    <type id="highway.residential" priority="4" numLanes="1" speed="13.40"/>
    <type id="highway.secondary" priority="7" numLanes="2" speed="17.90"/>
    <type id="highway.tertiary" priority="6" numLanes="1" speed="17.90"/>
    <type id="highway.trunk" priority="11" numLanes="2" speed="29.10"/>
    <type id="highway.trunk_link" priority="10" numLanes="1" speed="24.60"/>
    <type id="highway.unclassified" priority="5" numLanes="1" speed="13.40"/>

    <edge id=":1019448878_0" function="internal">
        <lane id=":1019448878_0_0" index="0" speed="20.10" length="0.30" shape="1310.90,1617.76 1310.64,1617.92"/>
        <lane id=":1019448878_0_1" index="1" speed="20.10" length="0.30" shape="1309.13,1614.97 1308.88,1615.13"/>
    </edge>
    <edge id=":1147069737_0" function="internal">
        <lane id=":1147069737_0_0" index="0" speed="20.10" length="0.10" shape="2008.27,330.89 2008.27,330.89"/>
        <lane id=":1147069737_0_1" index="1" speed="20.10" length="0.10" shape="2010.62,328.58 2010.62,328.58"/>
    </edge>
    <edge id=":1196712479_0" function="internal">
        <lane id=":1196712479_0_0" index="0" speed="13.40" length="0.30" shape="2627.89,344.59 2628.10,344.38"/>
    </edge>
    <edge id=":1196712486_0" function="internal">
        <lane id=":1196712486_0_0" index="0" speed="13.40" length="5.48" shape="2864.52,586.12 2863.48,585.39 2862.29,585.12 2860.95,585.32 2859.45,585.97"/>
    </edge>
    <edge id=":1196712486_1" function="internal">
        <lane id=":1196712486_1_0" index="0" speed="13.40" length="6.33" shape="2864.52,586.12 2860.04,581.65"/>
    </edge>
    <edge id=":1196712486_2" function="internal">
        <lane id=":1196712486_2_0" index="0" speed="13.40" length="2.41" shape="2864.52,586.12 2864.23,584.66 2864.52,583.78"/>
    </edge>
    <edge id=":1196712486_6" function="internal">
        <lane id=":1196712486_6_0" index="0" speed="13.40" length="2.41" shape="2864.52,583.78 2865.39,583.49 2866.85,583.78"/>
    </edge>
    <edge id=":1196712486_3" function="internal">
        <lane id=":1196712486_3_0" index="0" speed="13.40" length="6.33" shape="2862.37,579.31 2866.85,583.78"/>
    </edge>
    <edge id=":1196712486_4" function="internal">
        <lane id=":1196712486_4_0" index="0" speed="13.40" length="3.58" shape="2862.37,579.31 2863.40,580.93 2863.25,582.58"/>
    </edge>
    <edge id=":1196712486_5" function="internal">
        <lane id=":1196712486_5_0" index="0" speed="13.40" length="2.41" shape="2862.37,579.31 2862.66,580.77 2862.37,581.65"/>
    </edge>
    <edge id=":1196712486_7" function="internal">
        <lane id=":1196712486_7_0" index="0" speed="13.40" length="5.15" shape="2863.25,582.58 2861.94,584.26 2859.45,585.97"/>
    </edge>
    <edge id=":1196712486_8" function="internal">
        <lane id=":1196712486_8_0" index="0" speed="13.40" length="2.41" shape="2862.37,581.65 2861.50,581.94 2860.04,581.65"/>
    </edge>
    <edge id=":1619106759_0" function="internal">
        <lane id=":1619106759_0_0" index="0" speed="13.40" length="0.22" shape="2610.43,668.30 2610.67,668.08"/>
        <lane id=":1619106759_0_1" index="1" speed="13.40" length="0.22" shape="2612.72,670.67 2612.80,670.60"/>
    </edge>
    <edge id=":1619106762_0" function="internal">
        <lane id=":1619106762_0_0" index="0" speed="13.40" length="9.62" shape="2784.25,506.09 2777.44,499.30"/>
    </edge>
    <edge id=":1619106762_1" function="internal">
        <lane id=":1619106762_1_0" index="0" speed="13.40" length="3.08" shape="2784.25,506.09 2783.56,504.83 2783.72,503.30 2783.77,503.21"/>
    </edge>
    <edge id=":1619106762_2" function="internal">
        <lane id=":1619106762_2_0" index="0" speed="13.40" length="2.41" shape="2784.25,506.09 2783.95,504.63 2784.24,503.75"/>
    </edge>
    <edge id=":1619106762_10" function="internal">
        <lane id=":1619106762_10_0" index="0" speed="13.40" length="4.80" shape="2783.77,503.21 2784.73,501.47 2786.59,499.36"/>
    </edge>
    <edge id=":1619106762_11" function="internal">
        <lane id=":1619106762_11_0" index="0" speed="13.40" length="2.41" shape="2784.24,503.75 2785.12,503.46 2786.58,503.75"/>
    </edge>
    <edge id=":1619106762_3" function="internal">
        <lane id=":1619106762_3_0" index="0" speed="13.40" length="5.13" shape="2779.77,496.96 2780.90,497.81 2782.03,498.10 2783.15,497.84 2784.28,497.01"/>
    </edge>
    <edge id=":1619106762_4" function="internal">
        <lane id=":1619106762_4_0" index="0" speed="13.40" length="9.62" shape="2779.77,496.96 2786.58,503.75"/>
    </edge>
    <edge id=":1619106762_5" function="internal">
        <lane id=":1619106762_5_0" index="0" speed="13.40" length="2.41" shape="2779.77,496.96 2780.06,498.42 2779.77,499.29"/>
    </edge>
    <edge id=":1619106762_12" function="internal">
        <lane id=":1619106762_12_0" index="0" speed="13.40" length="2.41" shape="2779.77,499.29 2778.90,499.59 2777.44,499.30"/>
    </edge>
    <edge id=":1619106762_6" function="internal">
        <lane id=":1619106762_6_0" index="0" speed="13.40" length="5.03" shape="2777.39,503.68 2778.24,502.60 2778.54,501.50 2778.27,500.40 2777.44,499.30"/>
    </edge>
    <edge id=":1619106762_7" function="internal">
        <lane id=":1619106762_7_0" index="0" speed="13.40" length="9.62" shape="2777.39,503.68 2784.28,497.01"/>
        <lane id=":1619106762_7_1" index="1" speed="13.40" length="9.62" shape="2779.66,506.07 2786.59,499.36"/>
    </edge>
    <edge id=":1619106762_9" function="internal">
        <lane id=":1619106762_9_0" index="0" speed="13.40" length="8.00" shape="2779.66,506.07 2781.87,504.24 2783.76,503.24 2785.33,503.08 2786.58,503.75"/>
    </edge>
    <edge id=":2127364227_0" function="internal">
        <lane id=":2127364227_0_0" index="0" speed="20.10" length="0.10" shape="1937.59,259.02 1937.59,259.02"/>
        <lane id=":2127364227_0_1" index="1" speed="20.10" length="0.10" shape="1939.95,256.71 1939.95,256.71"/>
    </edge>
    <edge id=":2127364247_0" function="internal">
        <lane id=":2127364247_0_0" index="0" speed="13.40" length="0.22" shape="2883.86,397.42 2884.10,397.19"/>
        <lane id=":2127364247_0_1" index="1" speed="13.40" length="0.22" shape="2886.21,399.74 2886.29,399.66"/>
    </edge>
    <edge id=":2222522368_0" function="internal">
        <lane id=":2222522368_0_0" index="0" speed="20.10" length="0.22" shape="2815.93,329.72 2815.85,329.79"/>
        <lane id=":2222522368_0_1" index="1" speed="20.10" length="0.22" shape="2813.73,327.26 2813.49,327.49"/>
    </edge>
    <edge id=":2222522385_0" function="internal">
        <lane id=":2222522385_0_0" index="0" speed="16.75" length="5.09" shape="2714.88,436.93 2713.77,436.10 2712.65,435.82 2711.53,436.09 2710.40,436.91"/>
    </edge>
    <edge id=":2222522385_1" function="internal">
        <lane id=":2222522385_1_0" index="0" speed="13.40" length="9.59" shape="2714.88,436.93 2708.15,430.09"/>
    </edge>
    <edge id=":2222522385_2" function="internal">
        <lane id=":2222522385_2_0" index="0" speed="16.75" length="5.07" shape="2717.26,430.14 2716.42,431.27 2716.13,432.39 2716.39,433.50 2717.21,434.59"/>
    </edge>
    <edge id=":2222522385_3" function="internal">
        <lane id=":2222522385_3_0" index="0" speed="20.10" length="9.59" shape="2717.26,430.14 2710.40,436.91"/>
        <lane id=":2222522385_3_1" index="1" speed="20.10" length="9.59" shape="2714.91,427.82 2708.11,434.52"/>
    </edge>
    <edge id=":2222522385_5" function="internal">
        <lane id=":2222522385_5_0" index="0" speed="13.40" length="9.53" shape="2710.53,427.80 2717.21,434.59"/>
    </edge>
    <edge id=":2222522424_0" function="internal">
        <lane id=":2222522424_0_0" index="0" speed="20.10" length="12.60" shape="2417.16,692.62 2420.38,692.10 2422.99,691.45 2425.50,690.15 2428.42,687.68"/>
    </edge>
    <edge id=":2222522424_1" function="internal">
        <lane id=":2222522424_1_0" index="0" speed="20.10" length="12.33" shape="2419.41,696.06 2428.42,687.68"/>
        <lane id=":2222522424_1_1" index="1" speed="20.10" length="12.33" shape="2421.67,698.46 2430.73,690.04"/>
    </edge>
    <edge id=":2222522427_0" function="internal">
        <lane id=":2222522427_0_0" index="0" speed="20.10" length="7.94" shape="2443.41,694.14 2442.05,695.93 2441.60,697.45 2441.59,699.18 2441.55,701.56"/>
    </edge>
    <edge id=":2222522427_1" function="internal">
        <lane id=":2222522427_1_0" index="0" speed="20.10" length="7.99" shape="2443.41,694.14 2437.88,699.91"/>
        <lane id=":2222522427_1_1" index="1" speed="20.10" length="7.99" shape="2441.03,691.86 2435.50,697.63"/>
    </edge>
    <edge id=":2222522430_0" function="internal">
        <lane id=":2222522430_0_0" index="0" speed="20.10" length="5.47" shape="2400.84,708.85 2402.06,709.75 2403.27,710.07 2404.48,709.81 2405.68,708.98"/>
    </edge>
    <edge id=":2222522430_1" function="internal">
        <lane id=":2222522430_1_0" index="0" speed="20.10" length="9.86" shape="2400.84,708.85 2407.88,715.77"/>
        <lane id=":2222522430_1_1" index="1" speed="20.10" length="9.86" shape="2398.54,711.22 2405.56,718.11"/>
    </edge>
    <edge id=":2222522430_3" function="internal">
        <lane id=":2222522430_3_0" index="0" speed="20.10" length="9.86" shape="2398.44,715.60 2405.68,708.98"/>
        <lane id=":2222522430_3_1" index="1" speed="20.10" length="9.86" shape="2400.63,718.07 2407.94,711.38"/>
    </edge>
    <edge id=":2222522430_5" function="internal">
        <lane id=":2222522430_5_0" index="0" speed="20.10" length="5.55" shape="2400.63,718.07 2401.90,717.21 2403.15,716.93 2404.37,717.23 2405.56,718.11"/>
    </edge>
    <edge id=":2222522433_0" function="internal">
        <lane id=":2222522433_0_0" index="0" speed="20.10" length="5.07" shape="2417.67,720.99 2416.84,722.13 2416.56,723.26 2416.82,724.37 2417.63,725.46"/>
    </edge>
    <edge id=":2222522433_1" function="internal">
        <lane id=":2222522433_1_0" index="0" speed="20.10" length="9.71" shape="2417.67,720.99 2410.65,727.85"/>
        <lane id=":2222522433_1_1" index="1" speed="20.10" length="9.71" shape="2415.29,718.70 2408.42,725.41"/>
    </edge>
    <edge id=":2222522433_3" function="internal">
        <lane id=":2222522433_3_0" index="0" speed="20.10" length="9.59" shape="2410.83,718.68 2417.63,725.46"/>
        <lane id=":2222522433_3_1" index="1" speed="20.10" length="9.59" shape="2408.50,721.03 2415.29,727.79"/>
    </edge>
    <edge id=":2222522433_5" function="internal">
        <lane id=":2222522433_5_0" index="0" speed="20.10" length="5.06" shape="2408.50,721.03 2409.35,722.14 2409.61,723.24 2409.30,724.33 2408.42,725.41"/>
    </edge>
    <edge id=":2222553767_0" function="internal">
        <lane id=":2222553767_0_0" index="0" speed="13.40" length="7.63" shape="2326.44,801.47 2321.08,796.03"/>
    </edge>
    <edge id=":2222553767_1" function="internal">
        <lane id=":2222553767_1_0" index="0" speed="16.75" length="2.62" shape="2326.44,801.47 2325.94,800.39 2326.26,798.99"/>
    </edge>
    <edge id=":2222553767_2" function="internal">
        <lane id=":2222553767_2_0" index="0" speed="13.40" length="2.41" shape="2326.44,801.47 2326.16,800.01 2326.46,799.13"/>
    </edge>
    <edge id=":2222553767_10" function="internal">
        <lane id=":2222553767_10_0" index="0" speed="16.75" length="4.87" shape="2326.26,798.99 2327.38,797.26 2329.31,795.21"/>
    </edge>
    <edge id=":2222553767_11" function="internal">
        <lane id=":2222553767_11_0" index="0" speed="13.40" length="2.41" shape="2326.46,799.13 2327.33,798.85 2328.79,799.15"/>
    </edge>
    <edge id=":2222553767_3" function="internal">
        <lane id=":2222553767_3_0" index="0" speed="16.75" length="4.14" shape="2323.43,793.72 2324.13,794.15 2324.97,794.14 2325.94,793.70 2327.04,792.82"/>
    </edge>
    <edge id=":2222553767_4" function="internal">
        <lane id=":2222553767_4_0" index="0" speed="13.40" length="7.64" shape="2323.43,793.72 2328.79,799.15"/>
    </edge>
    <edge id=":2222553767_5" function="internal">
        <lane id=":2222553767_5_0" index="0" speed="13.40" length="2.41" shape="2323.43,793.72 2323.71,795.18 2323.41,796.05"/>
    </edge>
    <edge id=":2222553767_12" function="internal">
        <lane id=":2222553767_12_0" index="0" speed="13.40" length="2.41" shape="2323.41,796.05 2322.53,796.34 2321.08,796.03"/>
    </edge>
    <edge id=":2222553767_6" function="internal">
        <lane id=":2222553767_6_0" index="0" speed="16.75" length="4.00" shape="2320.11,799.48 2321.01,798.45 2321.47,797.53 2321.49,796.73 2321.08,796.03"/>
    </edge>
    <edge id=":2222553767_7" function="internal">
        <lane id=":2222553767_7_0" index="0" speed="20.10" length="9.58" shape="2320.11,799.48 2327.04,792.82"/>
        <lane id=":2222553767_7_1" index="1" speed="20.10" length="9.58" shape="2322.42,801.84 2329.31,795.21"/>
    </edge>
    <edge id=":2222553767_9" function="internal">
        <lane id=":2222553767_9_0" index="0" speed="16.75" length="7.50" shape="2322.42,801.84 2324.54,799.99 2326.31,798.92 2327.73,798.64 2328.79,799.15"/>
    </edge>
    <edge id=":2222553768_0" function="internal">
        <lane id=":2222553768_0_0" index="0" speed="16.75" length="3.64" shape="2331.50,806.63 2330.98,806.37 2330.29,806.50 2329.43,807.01 2328.41,807.91"/>
    </edge>
    <edge id=":2222553768_1" function="internal">
        <lane id=":2222553768_1_0" index="0" speed="13.40" length="7.02" shape="2331.50,806.63 2326.58,801.61"/>
    </edge>
    <edge id=":2222553768_2" function="internal">
        <lane id=":2222553768_2_0" index="0" speed="13.40" length="2.51" shape="2331.50,806.63 2331.18,805.17 2331.46,804.29 2331.56,804.26"/>
    </edge>
    <edge id=":2222553768_10" function="internal">
        <lane id=":2222553768_10_0" index="0" speed="13.40" length="2.31" shape="2331.56,804.26 2332.33,803.99 2333.79,804.26"/>
    </edge>
    <edge id=":2222553768_3" function="internal">
        <lane id=":2222553768_3_0" index="0" speed="16.75" length="3.58" shape="2335.24,801.28 2334.31,802.27 2333.76,803.10 2333.58,803.76 2333.79,804.26"/>
    </edge>
    <edge id=":2222553768_4" function="internal">
        <lane id=":2222553768_4_0" index="0" speed="20.10" length="9.54" shape="2335.24,801.28 2328.41,807.91"/>
        <lane id=":2222553768_4_1" index="1" speed="20.10" length="9.54" shape="2332.96,798.90 2326.09,805.56"/>
    </edge>
    <edge id=":2222553768_6" function="internal">
        <lane id=":2222553768_6_0" index="0" speed="16.75" length="7.49" shape="2332.96,798.90 2330.81,800.74 2329.04,801.81 2327.63,802.10 2326.58,801.61"/>
    </edge>
    <edge id=":2222553768_7" function="internal">
        <lane id=":2222553768_7_0" index="0" speed="13.40" length="6.95" shape="2328.93,799.29 2333.79,804.26"/>
    </edge>
    <edge id=":2222553768_8" function="internal">
        <lane id=":2222553768_8_0" index="0" speed="16.75" length="2.69" shape="2328.93,799.29 2329.41,800.35 2329.09,801.74 2329.04,801.83"/>
    </edge>
    <edge id=":2222553768_9" function="internal">
        <lane id=":2222553768_9_0" index="0" speed="13.40" length="2.41" shape="2328.93,799.29 2329.21,800.75 2328.92,801.63"/>
    </edge>
    <edge id=":2222553768_11" function="internal">
        <lane id=":2222553768_11_0" index="0" speed="16.75" length="4.77" shape="2329.04,801.83 2327.99,803.48 2326.09,805.56"/>
    </edge>
    <edge id=":2222553768_12" function="internal">
        <lane id=":2222553768_12_0" index="0" speed="13.40" length="2.41" shape="2328.92,801.63 2328.04,801.91 2326.58,801.61"/>
    </edge>
    <edge id=":2222553770_0" function="internal">
        <lane id=":2222553770_0_0" index="0" speed="13.40" length="2.12" shape="2234.34,872.89 2234.70,870.80"/>
    </edge>
    <edge id=":2222553770_1" function="internal">
        <lane id=":2222553770_1_0" index="0" speed="13.40" length="4.82" shape="2234.34,872.89 2234.01,871.44 2234.28,870.56 2235.15,870.25 2236.61,870.50"/>
    </edge>
    <edge id=":2222553779_0" function="internal">
        <lane id=":2222553779_0_0" index="0" speed="20.10" length="3.01" shape="2057.41,1055.64 2058.05,1055.46 2058.54,1054.92 2058.97,1054.22 2059.46,1053.59"/>
    </edge>
    <edge id=":2222553779_1" function="internal">
        <lane id=":2222553779_1_0" index="0" speed="20.10" length="3.14" shape="2057.20,1055.88 2059.46,1053.59"/>
        <lane id=":2222553779_1_1" index="1" speed="20.10" length="3.14" shape="2059.61,1058.14 2061.76,1055.95"/>
    </edge>
    <edge id=":2222553786_0" function="internal">
        <lane id=":2222553786_0_0" index="0" speed="20.10" length="11.82" shape="2037.33,1114.77 2034.40,1115.98 2032.06,1116.83 2029.77,1118.05 2027.04,1120.34"/>
    </edge>
    <edge id=":2222553786_1" function="internal">
        <lane id=":2222553786_1_0" index="0" speed="20.10" length="11.76" shape="2035.17,1111.78 2027.04,1120.34"/>
        <lane id=":2222553786_1_1" index="1" speed="20.10" length="11.76" shape="2032.79,1109.49 2024.73,1117.99"/>
    </edge>
    <edge id=":2222553813_0" function="internal">
        <lane id=":2222553813_0_0" index="0" speed="20.10" length="0.24" shape="1612.96,1430.10 1612.70,1430.26"/>
        <lane id=":2222553813_0_1" index="1" speed="20.10" length="0.24" shape="1611.16,1427.33 1611.00,1427.43"/>
    </edge>
    <edge id=":2222553820_0" function="internal">
        <lane id=":2222553820_0_0" index="0" speed="20.10" length="0.27" shape="1475.28,1513.17 1475.09,1513.29"/>
        <lane id=":2222553820_0_1" index="1" speed="20.10" length="0.27" shape="1473.58,1510.34 1473.31,1510.51"/>
    </edge>
    <edge id=":2222553856_0" function="internal">
        <lane id=":2222553856_0_0" index="0" speed="20.10" length="0.30" shape="1015.24,1803.70 1014.98,1803.86"/>
        <lane id=":2222553856_0_1" index="1" speed="20.10" length="0.30" shape="1013.47,1800.91 1013.22,1801.07"/>
    </edge>
    <edge id=":2285774247_0" function="internal">
        <lane id=":2285774247_0_0" index="0" speed="13.40" length="6.14" shape="2711.03,725.64 2706.68,729.98"/>
    </edge>
    <edge id=":2285774247_1" function="internal">
        <lane id=":2285774247_1_0" index="0" speed="13.40" length="5.01" shape="2711.03,725.64 2709.92,726.44 2708.82,726.69 2707.73,726.39 2706.65,725.54"/>
    </edge>
    <edge id=":2285774254_0" function="internal">
        <lane id=":2285774254_0_0" index="0" speed="13.40" length="6.18" shape="2612.67,820.89 2608.17,825.14"/>
    </edge>
    <edge id=":2285774254_1" function="internal">
        <lane id=":2285774254_1_0" index="0" speed="13.40" length="5.01" shape="2612.67,820.89 2611.55,821.67 2610.44,821.91 2609.35,821.61 2608.26,820.76"/>
    </edge>
    <edge id=":2285774258_0" function="internal">
        <lane id=":2285774258_0_0" index="0" speed="16.75" length="5.30" shape="2563.75,867.61 2562.91,868.71 2562.66,869.84 2563.00,871.02 2563.93,872.23"/>
    </edge>
    <edge id=":2285774258_1" function="internal">
        <lane id=":2285774258_1_0" index="0" speed="13.40" length="9.74" shape="2563.75,867.61 2561.66,869.61 2560.29,871.04 2559.01,872.55 2557.22,874.82"/>
    </edge>
    <edge id=":2285774258_2" function="internal">
        <lane id=":2285774258_2_0" index="0" speed="20.10" length="6.54" shape="2559.32,867.60 2563.93,872.23"/>
        <lane id=":2285774258_2_1" index="1" speed="20.10" length="6.54" shape="2556.98,869.93 2561.59,874.56"/>
    </edge>
    <edge id=":2285774258_4" function="internal">
        <lane id=":2285774258_4_0" index="0" speed="16.75" length="5.44" shape="2556.98,869.93 2557.85,871.09 2558.18,872.30 2557.97,873.54 2557.22,874.82"/>
    </edge>
    <edge id=":2285774260_0" function="internal">
        <lane id=":2285774260_0_0" index="0" speed="16.75" length="5.02" shape="2554.60,885.52 2553.50,884.68 2552.41,884.40 2551.31,884.68 2550.21,885.52"/>
    </edge>
    <edge id=":2285774260_1" function="internal">
        <lane id=":2285774260_1_0" index="0" speed="20.10" length="9.50" shape="2554.60,885.52 2547.96,878.73"/>
        <lane id=":2285774260_1_1" index="1" speed="20.10" length="9.50" shape="2556.96,883.22 2550.32,876.42"/>
    </edge>
    <edge id=":2285774260_3" function="internal">
        <lane id=":2285774260_3_0" index="0" speed="13.40" length="10.07" shape="2555.49,877.01 2553.86,879.49 2553.01,881.40 2552.08,883.24 2550.21,885.52"/>
    </edge>
    <edge id=":2285774260_4" function="internal">
        <lane id=":2285774260_4_0" index="0" speed="16.75" length="6.08" shape="2555.49,877.01 2554.40,877.95 2553.17,878.17 2551.81,877.66 2550.32,876.42"/>
    </edge>
    <edge id=":2285774260_5" function="internal">
        <lane id=":2285774260_5_0" index="0" speed="16.75" length="5.08" shape="2547.86,883.21 2548.71,882.07 2549.00,880.95 2548.75,879.83 2547.96,878.73"/>
    </edge>
    <edge id=":2285774260_6" function="internal">
        <lane id=":2285774260_6_0" index="0" speed="13.40" length="4.82" shape="2547.86,883.21 2549.31,882.90 2550.19,883.19 2550.49,884.06 2550.21,885.52"/>
    </edge>
    <edge id=":2285774265_0" function="internal">
        <lane id=":2285774265_0_0" index="0" speed="13.40" length="5.12" shape="2516.88,918.35 2516.04,919.42 2515.75,920.52 2516.01,921.68 2516.81,922.87"/>
    </edge>
    <edge id=":2285774265_1" function="internal">
        <lane id=":2285774265_1_0" index="0" speed="13.40" length="6.29" shape="2516.88,918.35 2512.42,922.78"/>
    </edge>
    <edge id=":2285774265_2" function="internal">
        <lane id=":2285774265_2_0" index="0" speed="13.40" length="4.82" shape="2516.88,918.35 2515.42,918.60 2514.55,918.28 2514.29,917.39 2514.62,915.94"/>
    </edge>
    <edge id=":2285774265_3" function="internal">
        <lane id=":2285774265_3_0" index="0" speed="13.40" length="6.46" shape="2510.04,920.50 2514.62,915.94"/>
    </edge>
    <edge id=":2285774265_4" function="internal">
        <lane id=":2285774265_4_0" index="0" speed="13.40" length="8.09" shape="2510.04,920.50 2511.37,919.69 2512.95,919.82 2514.76,920.88 2516.81,922.87"/>
    </edge>
    <edge id=":2285774265_5" function="internal">
        <lane id=":2285774265_5_0" index="0" speed="13.40" length="4.82" shape="2510.04,920.50 2511.49,920.18 2512.37,920.45 2512.68,921.32 2512.42,922.78"/>
    </edge>
    <edge id=":2285774268_0" function="internal">
        <lane id=":2285774268_0_0" index="0" speed="15.65" length="4.98" shape="2028.78,882.99 2028.55,881.64 2027.94,880.69 2026.96,880.13 2025.61,879.96"/>
    </edge>
    <edge id=":2285774268_1" function="internal">
        <lane id=":2285774268_1_0" index="0" speed="13.40" length="6.16" shape="2031.76,879.77 2025.61,879.96"/>
    </edge>
    <edge id=":2285774269_0" function="internal">
        <lane id=":2285774269_0_0" index="0" speed="17.90" length="6.92" shape="2033.52,618.67 2032.83,619.65 2032.36,621.08 2032.11,622.96 2032.09,625.28"/>
    </edge>
    <edge id=":2285774269_1" function="internal">
        <lane id=":2285774269_1_0" index="0" speed="17.90" length="7.30" shape="2033.52,618.67 2028.25,623.71"/>
    </edge>
    <edge id=":2285774269_2" function="internal">
        <lane id=":2285774269_2_0" index="0" speed="17.90" length="2.41" shape="2033.52,618.67 2032.05,618.93 2031.18,618.62"/>
    </edge>
    <edge id=":2285774269_6" function="internal">
        <lane id=":2285774269_6_0" index="0" speed="17.90" length="2.41" shape="2031.18,618.62 2030.91,617.74 2031.23,616.28"/>
    </edge>
    <edge id=":2285774269_3" function="internal">
        <lane id=":2285774269_3_0" index="0" speed="17.90" length="7.29" shape="2025.96,621.33 2031.23,616.28"/>
    </edge>
    <edge id=":2285774269_4" function="internal">
        <lane id=":2285774269_4_0" index="0" speed="17.90" length="4.93" shape="2025.96,621.33 2028.52,619.49 2030.30,619.53"/>
    </edge>
    <edge id=":2285774269_5" function="internal">
        <lane id=":2285774269_5_0" index="0" speed="17.90" length="2.41" shape="2025.96,621.33 2027.43,621.07 2028.30,621.38"/>
    </edge>
    <edge id=":2285774269_7" function="internal">
        <lane id=":2285774269_7_0" index="0" speed="17.90" length="6.21" shape="2030.30,619.53 2030.40,619.53 2031.59,621.46 2032.09,625.28"/>
    </edge>
    <edge id=":2285774269_8" function="internal">
        <lane id=":2285774269_8_0" index="0" speed="17.90" length="2.41" shape="2028.30,621.38 2028.57,622.26 2028.25,623.71"/>
    </edge>
    <edge id=":2285774271_0" function="internal">
        <lane id=":2285774271_0_0" index="0" speed="13.40" length="5.04" shape="2479.71,961.22 2478.64,960.37 2477.54,960.07 2476.42,960.32 2475.28,961.12"/>
    </edge>
    <edge id=":2285774271_1" function="internal">
        <lane id=":2285774271_1_0" index="0" speed="13.40" length="9.63" shape="2479.71,961.22 2473.09,954.21"/>
    </edge>
    <edge id=":2285774271_2" function="internal">
        <lane id=":2285774271_2_0" index="0" speed="13.40" length="10.44" shape="2479.71,961.22 2478.10,958.93 2477.59,956.63 2478.18,954.31 2479.88,951.97"/>
    </edge>
    <edge id=":2285774271_3" function="internal">
        <lane id=":2285774271_3_0" index="0" speed="13.40" length="4.82" shape="2479.71,961.22 2479.46,959.75 2479.77,958.88 2480.65,958.61 2482.10,958.94"/>
    </edge>
    <edge id=":2285774271_4" function="internal">
        <lane id=":2285774271_4_0" index="0" speed="13.40" length="5.30" shape="2482.26,954.25 2481.38,955.45 2481.06,956.63 2481.30,957.80 2482.10,958.94"/>
    </edge>
    <edge id=":2285774271_5" function="internal">
        <lane id=":2285774271_5_0" index="0" speed="13.40" length="9.80" shape="2482.26,954.25 2475.28,961.12"/>
    </edge>
    <edge id=":2285774271_6" function="internal">
        <lane id=":2285774271_6_0" index="0" speed="13.40" length="10.58" shape="2482.26,954.25 2479.96,956.05 2477.67,956.65 2475.37,956.03 2473.09,954.21"/>
    </edge>
    <edge id=":2285774271_7" function="internal">
        <lane id=":2285774271_7_0" index="0" speed="13.40" length="4.82" shape="2482.26,954.25 2480.81,954.58 2479.93,954.30 2479.62,953.43 2479.88,951.97"/>
    </edge>
    <edge id=":2285774271_8" function="internal">
        <lane id=":2285774271_8_0" index="0" speed="13.40" length="5.06" shape="2475.49,951.95 2476.58,952.82 2477.68,953.11 2478.78,952.83 2479.88,951.97"/>
    </edge>
    <edge id=":2285774271_9" function="internal">
        <lane id=":2285774271_9_0" index="0" speed="13.40" length="9.62" shape="2475.49,951.95 2482.10,958.94"/>
    </edge>
    <edge id=":2285774271_10" function="internal">
        <lane id=":2285774271_10_0" index="0" speed="13.40" length="10.48" shape="2475.49,951.95 2477.17,954.32 2477.70,956.64 2477.06,958.91 2475.28,961.12"/>
    </edge>
    <edge id=":2285774271_11" function="internal">
        <lane id=":2285774271_11_0" index="0" speed="13.40" length="4.82" shape="2475.49,951.95 2475.74,953.42 2475.42,954.28 2474.54,954.55 2473.09,954.21"/>
    </edge>
    <edge id=":2285774271_12" function="internal">
        <lane id=":2285774271_12_0" index="0" speed="13.40" length="5.12" shape="2473.03,958.70 2473.90,957.62 2474.19,956.52 2473.92,955.38 2473.09,954.21"/>
    </edge>
    <edge id=":2285774271_13" function="internal">
        <lane id=":2285774271_13_0" index="0" speed="13.40" length="9.60" shape="2473.03,958.70 2479.88,951.97"/>
    </edge>
    <edge id=":2285774271_14" function="internal">
        <lane id=":2285774271_14_0" index="0" speed="13.40" length="10.32" shape="2473.03,958.70 2475.37,957.08 2477.65,956.58 2479.90,957.20 2482.10,958.94"/>
    </edge>
    <edge id=":2285774271_15" function="internal">
        <lane id=":2285774271_15_0" index="0" speed="13.40" length="4.82" shape="2473.03,958.70 2474.50,958.46 2475.37,958.79 2475.62,959.68 2475.28,961.12"/>
    </edge>
    <edge id=":2285774275_0" function="internal">
        <lane id=":2285774275_0_0" index="0" speed="13.40" length="5.26" shape="2360.69,992.09 2359.49,991.20 2358.37,990.98 2357.32,991.43 2356.33,992.55"/>
    </edge>
    <edge id=":2285774275_1" function="internal">
        <lane id=":2285774275_1_0" index="0" speed="13.40" length="10.72" shape="2360.69,992.09 2352.90,984.72"/>
    </edge>
    <edge id=":2285774275_2" function="internal">
        <lane id=":2285774275_2_0" index="0" speed="13.40" length="11.46" shape="2360.69,992.09 2358.79,989.63 2357.95,987.09 2358.18,984.45 2359.46,981.71"/>
    </edge>
    <edge id=":2285774275_3" function="internal">
        <lane id=":2285774275_3_0" index="0" speed="13.40" length="4.82" shape="2360.69,992.09 2360.39,990.63 2360.67,989.75 2361.55,989.46 2363.01,989.74"/>
    </edge>
    <edge id=":2285774275_4" function="internal">