<?xml version="1.0" encoding="UTF-8"?>
<!-- generated on 2020-03-19 08:07:37.299749 by $Id$
  options: -n real.net.xml -r real.rou.xml -e 50 -b 0 -e 110 -l
-->
<routes xmlns:xsi="http://www.w3.org/2001/XMLSchema-instance" xsi:noNamespaceSchemaLocation="http://sumo.dlr.de/xsd/routes_file.xsd">
    <trip id="0" depart="0.00" from="328093151#1" to="-260743648#0"/>
    <trip id="1" depart="1.00" from="575312687#0" to="354073845#3"/>
    <trip id="2" depart="2.00" from="223053394#1" to="103643440#1"/>
    <trip id="3" depart="3.00" from="-219414229#1" to="677977532#2"/>
    <trip id="4" depart="4.00" from="359185423#1" to="-575312693#3"/>
    <trip id="5" depart="5.00" from="103643440#0" to="575312696#2"/>
    <trip id="6" depart="6.00" from="263593101#7" to="575312690#0"/>
    <trip id="7" depart="7.00" from="610897310#0" to="270385602#0"/>
    <trip id="8" depart="8.00" from="-271452257#4" to="-575312693#3"/>
    <trip id="9" depart="9.00" from="610897309#7" to="263593101#3"/>
    <trip id="10" depart="10.00" from="-271452257#3" to="-219485331#1"/>
    <trip id="11" depart="11.00" from="328091233#3" to="677977533#3"/>
    <trip id="12" depart="12.00" from="328091233#1" to="575312690#1"/>
    <trip id="13" depart="13.00" from="354073841#0" to="219414232#2"/>
    <trip id="14" depart="14.00" from="148849082#1" to="223053394#1"/>
    <trip id="15" depart="15.00" from="610897309#0" to="328091232#3"/>
    <trip id="16" depart="16.00" from="-575315196" to="61652360#3"/>
    <trip id="17" depart="17.00" from="328093151#2" to="289080998#2"/>
    <trip id="18" depart="18.00" from="354073841#1" to="610897309#3"/>
    <trip id="19" depart="19.00" from="-575312693#3" to="-575312696#2"/>
    <trip id="20" depart="20.00" from="625475654#12" to="263593101#7"/>
    <trip id="21" depart="21.00" from="219414237" to="223059866#3"/>
    <trip id="22" depart="22.00" from="625475654#6" to="-223059859#1"/>
    <trip id="23" depart="23.00" from="762607332" to="-575312693#3"/>
    <trip id="24" depart="24.00" from="-575312693#4" to="61652360#6"/>
    <trip id="25" depart="25.00" from="-575343613#0" to="-219485331#2"/>
    <trip id="26" depart="26.00" from="148849082#6" to="219414214#0"/>
    <trip id="27" depart="27.00" from="289080998#2" to="336863678#3"/>
    <trip id="28" depart="28.00" from="610897309#3" to="762607341#0"/>
    <trip id="29" depart="29.00" from="610894788#2" to="-293657006"/>
    <trip id="30" depart="30.00" from="219414232#5" to="-575312693#3"/>
    <trip id="31" depart="31.00" from="444828075" to="271086447#2"/>
    <trip id="32" depart="32.00" from="-677977533#4" to="-223059859#0"/>
    <trip id="33" depart="33.00" from="336863678#4" to="610897309#10"/>
    <trip id="34" depart="34.00" from="610897309#8" to="289080998#2"/>
    <trip id="35" depart="35.00" from="677977532#1" to="292836026#3"/>
    <trip id="36" depart="36.00" from="239433855" to="610897314"/>
    <trip id="37" depart="37.00" from="223059866#0" to="610895253#3"/>
    <trip id="38" depart="38.00" from="239433856" to="-575315196"/>
    <trip id="39" depart="39.00" from="271086447#4" to="610897309#0"/>
    <trip id="40" depart="40.00" from="575312668#1" to="677977532#2"/>
    <trip id="41" depart="41.00" from="-271452257#2" to="677977533#5"/>
    <trip id="42" depart="42.00" from="575343614" to="271086447#5"/>
    <trip id="43" depart="43.00" from="271452257#3" to="271086447#0"/>
    <trip id="44" depart="44.00" from="625475654#0" to="625475654#8"/>
    <trip id="45" depart="45.00" from="336863678#4" to="610897309#8"/>
    <trip id="46" depart="46.00" from="-677977533#1" to="677977533#0"/>
    <trip id="47" depart="47.00" from="223059866#3" to="219414232#2"/>
    <trip id="48" depart="48.00" from="260743648#1" to="598360240"/>
    <trip id="49" depart="49.00" from="260743648#0" to="-575343613#1"/>
    <trip id="50" depart="50.00" from="-263593101#0" to="219485331#2"/>
    <trip id="51" depart="51.00" from="518493229#1" to="575312696#0"/>
    <trip id="52" depart="52.00" from="610897310#0" to="-219414229#0"/>
    <trip id="53" depart="53.00" from="148849082#7" to="-239433855"/>
    <trip id="54" depart="54.00" from="336863678#4" to="-219414229#0"/>
    <trip id="55" depart="55.00" from="219414229#0" to="575315195"/>
    <trip id="56" depart="56.00" from="-271452257#4" to="223053394#3"/>
    <trip id="57" depart="57.00" from="270385602#1" to="610894789"/>
    <trip id="58" depart="58.00" from="625475654#9" to="-260743648#0"/>
    <trip id="59" depart="59.00" from="-219485331#2" to="610897309#10"/>
    <trip id="60" depart="60.00" from="610894793#2" to="-260743648#0"/>
    <trip id="61" depart="61.00" from="625475654#1" to="292836026#1"/>
    <trip id="62" depart="62.00" from="223059866#3" to="-271452257#3"/>
    <trip id="63" depart="63.00" from="61652360#0" to="-103643440#4"/>
    <trip id="64" depart="64.00" from="219414216" to="610897309#10"/>
    <trip id="65" depart="65.00" from="-575312693#4" to="271452257#4"/>
    <trip id="66" depart="66.00" from="677977533#0" to="292836026#1"/>
    <trip id="67" depart="67.00" from="271452257#1" to="-113582439#0"/>
    <trip id="68" depart="68.00" from="-575312696#3" to="625475654#3"/>
    <trip id="69" depart="69.00" from="336863678#2" to="292836026#6"/>
    <trip id="70" depart="70.00" from="762607332" to="610897309#7"/>
    <trip id="71" depart="71.00" from="-288939016#2" to="610897312"/>
    <trip id="72" depart="72.00" from="625475654#4" to="263593101#2"/>
    <trip id="73" depart="73.00" from="610897310#0" to="-223059859#0"/>
    <trip id="74" depart="74.00" from="-219414229#1" to="625475654#8"/>
    <trip id="75" depart="75.00" from="359185423#1" to="328091232#2"/>
    <trip id="76" depart="76.00" from="271086447#5" to="271086447#5"/>
    <trip id="77" depart="77.00" from="271086447#1" to="212405155#2"/>
    <trip id="78" depart="78.00" from="103643440#0" to="610895256#1"/>
    <trip id="79" depart="79.00" from="219485331#2" to="61652360#2"/>
    <trip id="80" depart="80.00" from="610893062#2" to="263593101#3"/>
    <trip id="81" depart="81.00" from="625475654#3" to="575312668#1"/>
    <trip id="82" depart="82.00" from="354073845#2" to="-260743648#1"/>
    <trip id="83" depart="83.00" from="223053391#3" to="-260743648#0"/>
    <trip id="84" depart="84.00" from="359185423#2" to="219414224#2"/>
    <trip id="85" depart="85.00" from="328091232#1" to="575312668#2"/>
    <trip id="86" depart="86.00" from="-677977533#0" to="271086447#3"/>
    <trip id="87" depart="87.00" from="575312693#1" to="-575312693#3"/>
    <trip id="88" depart="88.00" from="762607335" to="610897288"/>
    <trip id="89" depart="89.00" from="625475654#8" to="219414229#0"/>
    <trip id="90" depart="90.00" from="359185423#1" to="575316227#0"/>
    <trip id="91" depart="91.00" from="223059866#2" to="762607348"/>
    <trip id="92" depart="92.00" from="-219414237" to="223053397#3"/>
    <trip id="93" depart="93.00" from="219414237" to="223059859#1"/>
    <trip id="94" depart="94.00" from="610897309#12" to="271086447#2"/>
    <trip id="95" depart="95.00" from="610897302#0" to="610897309#7"/>
    <trip id="96" depart="96.00" from="271086447#0" to="625475654#6"/>
    <trip id="97" depart="97.00" from="271086447#0" to="-223059859#1"/>
    <trip id="98" depart="98.00" from="762607334#0" to="328091233#0"/>
    <trip id="99" depart="99.00" from="219414224#0" to="336863678#1"/>
    <trip id="100" depart="100.00" from="-288939016#0" to="219414229#0"/>
    <trip id="101" depart="101.00" from="328091232#4" to="219414229#1"/>
    <trip id="102" depart="102.00" from="610894788#4" to="610897309#0"/>
    <trip id="103" depart="103.00" from="292836026#4" to="271452257#4"/>
    <trip id="104" depart="104.00" from="-271452257#4" to="-239433856"/>
    <trip id="105" depart="105.00" from="292836026#2" to="-260743648#0"/>
    <trip id="106" depart="106.00" from="-103643440#3" to="610894788#2"/>
    <trip id="107" depart="107.00" from="610894793#3" to="677977533#1"/>
    <trip id="108" depart="108.00" from="610893062#3" to="354073841#1"/>
    <trip id="109" depart="109.00" from="223059859#0" to="212405155#2"/>
</routes>
